89
Coordinates from ORCA-job inp
  O   3.01668539071797     -2.40203896098970     -0.22968838725109
  O   -1.48865121401606      0.55395456997931      2.39731930738498
  O   -3.31343136054532      1.26957371472802      1.28495134611393
  O   1.39851101840748      0.86785458842857     -1.29456461622216
  O   3.21203341609885     -0.29936155859936     -2.03533773565258
  O   -1.21011328607543     -0.67975848632394      5.33324976383745
  O   -1.26516481968584      1.57240197513857      5.69402327036775
  O   1.08914023031609     -0.54619260495651     -4.41198177202203
  O   -0.59495743054999      0.96277340638809     -4.67895822826699
  C   1.40412408211042     -2.97793405107761      1.45836991528877
  C   2.23425612780848     -2.11987292034268      2.45221205309819
  C   1.56065264022971     -1.93783266370668      3.78271458141886
  C   0.92872703778248     -0.81261496767629      4.17320010595962
  C   0.80830917966206      0.38811052728090      3.25255144632857
  C   -0.12234227539262      0.11520454828455      2.07008006158324
  C   0.22173257993895      0.81534193784086      0.74109652175870
  C   1.22728328809151      0.01715408963569     -0.10031853568819
  C   0.77077195954453     -1.39758983958075     -0.51969231841234
  C   1.60388712163727     -2.62520197557480     -0.03739238406204
  C   -1.14963541816001      1.04973748267141      0.14540794409919
  C   -2.12737854481052      0.98486401673136      1.27282090707587
  C   -1.54385650787713      1.30095777281993     -1.10933823844438
  C   1.15729503408479     -3.82474622119254     -0.89192551730587
  C   0.25847211556385     -0.72526831943817      5.51028915797068
  C   -1.83681421461827      0.52071801474747      5.43420803363032
  C   -3.30889387118736      0.39155655780570      5.15416493589480
  C   2.36597526527450      0.58153760653134     -2.18333875218933
  C   2.20391021135676      1.38208878056316     -3.43154100929162
  C   2.11613821637336      2.72281200322593     -3.46365899452463
  C   2.23803923427825      3.67001617608030     -2.31566877934887
  C   2.08539321583113      0.51364660110082     -4.65447093201605
  C   -0.21897223367308     -0.16404178882604     -4.39407826466165
  C   -1.11552852660830     -1.28565283876594     -3.94392644916595
  H   3.13111238368415     -1.73382382326456     -0.94558952670020
  H   1.67158012615311     -4.03557625265705      1.60124894581294
  H   0.32949887739007     -2.91133704572268      1.68683596142074
  H   3.21275341055398     -2.60169299637788      2.59137713239611
  H   2.45606229684625     -1.14423771849706      2.00328602698761
  H   1.57103600976705     -2.79545605238019      4.46414842883418
  H   1.79889512413122      0.65718766602705      2.85446115115548
  H   0.44035390211417      1.27240078661699      3.79006530836651
  H   -0.20687414516855     -0.96632267448362      1.90503290625844
  H   0.67473776671605      1.79580404428010      0.96629396703441
  H   2.19827622655141     -0.01985251935043      0.41216871819534
  H   0.77450296822276     -1.42562476151970     -1.61907566169425
  H   -0.27955023768306     -1.55552778626871     -0.23348741564006
  H   -0.83813608964994      1.37298836419588     -1.93505038481478
  H   -2.60506426063183      1.44685992402441     -1.32106217915745
  H   0.09320384403809     -4.05578025954168     -0.73025548803007
  H   1.75055314123953     -4.71085637769246     -0.62732646738085
  H   1.31012506309151     -3.61150417395533     -1.96030572002227
  H   0.43908486489248     -1.62059882728850      6.11663583091985
  H   0.56543894697180      0.17148631044673      6.06677656355597
  H   -3.68748650154514     -0.60431627541519      5.41165040393313
  H   -3.45385268893894      0.55070997780721      4.07462846065272
  H   -3.85707325329230      1.16780786628699      5.69978091151461
  H   1.96025916833602      3.18111208399593     -4.44604518560030
  H   1.29563005777267      4.22878528091104     -2.19428476202072
  H   3.01738738102790      4.41956531692373     -2.52507782177334
  H   2.46839627513542      3.17272708060299     -1.36628760837096
  H   1.80344316916190      1.10424666612074     -5.53494942324252
  H   3.00447638258105     -0.04968051095144     -4.85391621923969
  H   -1.99980036391636     -1.32793871425242     -4.59151072248305
  H   -1.46235151951938     -1.05589057387705     -2.92441506580436
  H   -0.60034930549166     -2.25193193598221     -3.93582402911500
  O   -4.11290619705476      3.76192540653711     -0.04388105519928
  H   -3.85666703979542      2.91204848097113      0.35380517060747
  H   -3.48538583935834      4.39356669552507      0.32969020072905
  O   -2.11562926310906      3.69589485952789      3.76812692542490
  H   -1.89731535561283      3.01339276037445      4.42202597564738
  H   -2.70235798902095      3.24288330200937      3.15084059714629
  O   -1.10645325002617      3.76024738814653     -3.70474193976485
  H   -0.86435267654370      2.87075444115513     -3.99597552221421
  H   -2.03194841330071      3.67172416806859     -3.40491356715125
  O   -3.82817062231419      3.68267585641683     -2.85512171851960
  H   -4.26633042833262      2.87300797907471     -3.14350481539668
  H   -3.91769642149607      3.67523137171037     -1.87924377272705
  O   3.87863632104768     -2.79742967044315     -3.80832855563455
  H   4.13548689592165     -3.37960700498906     -3.06813198719720
  H   3.77674569014375     -1.93293928243801     -3.38925286750216
  O   4.51974746687084     -4.42047295363300     -1.50209776461112
  H   5.44483583254338     -4.31229228834768     -1.25064964628144
  H   4.03353673510815     -3.79693293063971     -0.92381490248014
  O   -5.63370149618455      2.19879793420816      2.94965204052667
  H   -5.27171906211829      2.76729252808950      3.63938547696397
  H   -4.84651348441699      1.83729623127400      2.51674375117529
  O   1.21666057364780      3.16135065280237      5.85475007704864
  H   1.81701535622138      2.82172667366455      6.52781793148928
  H   0.46013583485637      2.55731451563575      5.89208148963979
