89
Coordinates from ORCA-job inp
  O   2.99070738825983     -0.82808340457029      0.42014741412185
  O   -1.39341132285175      1.99723386266517      1.57454525154454
  O   -1.13844076460186      3.94290611512102      0.46270606927651
  O   -0.85744745785312     -0.32045966180324     -0.91202343283434
  O   -2.32464103631553      0.71054429015935     -2.20403658346940
  O   -2.17525148244978     -2.76793941214522      3.81426275529071
  O   -2.40558966743065     -2.44633761561919      1.57261572086413
  O   1.93477294120815     -0.85270315377544     -3.01135520917136
  O   2.89675099466263      0.49510977647262     -4.57727974643853
  C   2.39301779208349     -2.62667509363625      1.96225066915882
  C   1.94622710155970     -1.70127013804797      3.12037247064985
  C   0.50739806105307     -1.88422286462643      3.51100263310038
  C   -0.47285310681632     -0.97033778487013      3.57829139727014
  C   -0.35013472407899      0.49508287537012      3.22487092561881
  C   -0.70334234551925      0.69774438084630      1.74156692376768
  C   0.51582840968692      0.73522970932010      0.78476301455141
  C   0.48961672671006     -0.33060731337593     -0.32405114694065
  C   0.74591059173872     -1.75325274873270      0.16474950654060
  C   2.23207331218648     -2.07113796699389      0.53071845122944
  C   0.49807881668868      2.13693192596508      0.23858061384053
  C   -0.72218278483847      2.82513460091510      0.72819430207814
  C   1.39040613080391      2.72861940103653     -0.56362111396153
  C   2.80288978675287     -3.08123196062997     -0.47422101213064
  C   -1.88858790111475     -1.34940222684672      3.96104924901656
  C   -2.38192544140272     -3.19802990487432      2.53599012999284
  C   -2.53484924348739     -4.69220296863206      2.48238766915843
  C   -1.16061959730837      0.36166028226030     -2.04949134121792
  C   -0.11647526055014      0.56015785779217     -3.10649093923899
  C   0.06081286348909      1.76840986397633     -3.68037765376509
  C   -0.59083250747758      3.05795419701847     -3.31054547333838
  C   0.60993013821750     -0.66507469556131     -3.62189099949266
  C   2.98803135082708     -0.19902296821153     -3.57460008345407
  C   4.24918444291589     -0.46804198125645     -2.80281747612259
  H   3.89689416764889     -1.01780751462806      0.72585278689285
  H   3.46236557386008     -2.86351079251370      2.09093962867648
  H   1.85977290941703     -3.58933288163237      2.02674079132139
  H   2.56599709482491     -1.95121503762238      3.99833356067968
  H   2.18177780727104     -0.65720711985287      2.87029583528741
  H   0.24247093286905     -2.91763898592397      3.76370324591166
  H   0.64884922178750      0.89682162319612      3.44193921644089
  H   -1.06578271349206      1.07557868109843      3.82839932327413
  H   -1.43597372115130     -0.05454460495654      1.42149046435565
  H   1.44792801776446      0.56480443086636      1.33664814682368
  H   1.22737722584858     -0.05653893886303     -1.08483498516337
  H   0.43306018867526     -2.42812466813887     -0.64308306776627
  H   0.08132475350185     -1.96101295043261      1.01409175296756
  H   2.28159776616590      2.20474995369912     -0.91158968322743
  H   1.24044258132484      3.75791059749613     -0.89174349272564
  H   2.70017339456210     -2.68432648996998     -1.49247878256776
  H   2.26506209720671     -4.03904675019313     -0.41218861607308
  H   3.86814606549985     -3.26947706829185     -0.27022755867538
  H   -2.07902287327130     -1.13932469411111      5.02321328349665
  H   -2.61134811632760     -0.77340163056604      3.36361178901192
  H   -3.06839805632532     -4.97750236522768      1.56963943273835
  H   -3.05183468651130     -5.07505714646844      3.37035686551754
  H   -1.52985120467607     -5.14127109991563      2.45651125381800
  H   0.78357928019904      1.81439489268379     -4.50049641803585
  H   -1.15893905552733      3.00944653920640     -2.37464997600025
  H   -1.27688578464195      3.36788340488184     -4.11683563052245
  H   0.16703230728057      3.85209139677197     -3.23002603515356
  H   0.07643285529194     -1.58747826319305     -3.36596060864726
  H   0.72831426602044     -0.60265395811246     -4.71065309822418
  H   4.04233848200950     -0.45488689020455     -1.72411343916979
  H   5.01285847328947      0.26883775582779     -3.07169709530552
  H   4.61413029858233     -1.47409631232021     -3.05867230646848
  O   -4.35943322734452      1.82945372867796      3.40153219636895
  H   -4.21568711385068      2.51095480079864      2.72013044708242
  H   -4.42312733839294      1.00814936964675      2.88205144810194
  O   -0.32217058126775      6.04520694773756     -1.41122730863322
  H   -0.55783849176173      5.34176781949083     -0.78521786307054
  H   -0.30546114882108      6.84110610339201     -0.86758848237057
  O   -2.66132294433475     -3.11685392983089     -1.24706815794417
  H   -2.55393827842555     -2.92324052074826     -0.30091107139461
  H   -1.92166007807991     -2.65501045738166     -1.65824627783388
  O   -4.44189537394498      1.43850987162360     -0.53117517750676
  H   -3.67249251922639      1.16469746311381     -1.07099982186890
  H   -5.18386445703133      1.45632925737485     -1.14899341416277
  O   -4.63347230430272     -0.43331650844954      1.57338518815284
  H   -3.88726614425310     -1.04212502114921      1.47094781553303
  H   -4.58249053167039      0.14716001688722      0.78757600086634
  O   5.71978204963294     -1.29126319320800      1.16310260188207
  H   6.03877548550353     -0.56943722157136      1.71934947377142
  H   6.24434049037785     -1.21206707016972      0.35628754575127
  O   3.60584567295753      3.28770384243449     -3.79511438049025
  H   2.77091884947413      3.61353778477607     -3.43940412813752
  H   3.38751111297033      2.40232052255069     -4.12362578911213
  O   -4.08168730960580      3.73850835053271      1.16878387461621
  H   -4.21798549825471      3.02341526379600      0.51891358208316
  H   -3.14226797797541      3.95647948769392      1.06167256635134
