58
Coordinates from ORCA-job inp
  O   -3.05665004908953     -1.54479560725995     -0.50820729180823
  C   -3.04406043130528     -0.57714014133455     -1.23521056104801
  O   -4.15787987948476      0.05817057727004     -1.64891792195907
  H   -4.89914017900187     -0.42774048869978     -1.25612975205095
  C   -1.80300017932062      0.04796214730629     -1.82218757784510
  C   -1.71079028480363     -0.24674864850882     -3.31848900064742
  H   -0.79882050774934      0.20218339202762     -3.70279633348300
  H   -1.67678034568153     -1.32207765727529     -3.48555524620195
  H   -2.56617031050145      0.17231424399741     -3.84393648352473
  H   -1.84993046180484      1.12829129688340     -1.67386085903266
  N   -0.67438151205915     -0.47723332521249     -1.08967229531757
  H   -0.88413905838835     -1.19239424244639     -0.40717261537192
  C   0.45349017904970      0.25768751786330     -0.96420590583629
  O   0.68872681965163      1.25468755767531     -1.64334142648244
  C   1.38971151465521     -0.18517492979383      0.14073893409642
  H   1.23611826312195     -1.23498202536354      0.39486034121945
  N   2.74424660750359     -0.01032064451979     -0.30596329881778
  H   2.95122355321432      0.65810804296652     -1.03625899805146
  C   3.76675080237976     -0.64457628156821      0.30524170673390
  O   3.62393827338241     -1.43201446229610      1.23680433435021
  C   5.13736688323404     -0.33923635020263     -0.27904827836905
  H   5.40029912514675     -1.19299277157190     -0.90329487475762
  H   5.83683876132569     -0.32889177902995      0.55863021810601
  N   5.13767301014333      0.86534743447201     -1.10525570578405
  H   5.26007526283469      1.68773519183435     -0.52891964598907
  H   5.91127742169023      0.84942853542186     -1.75495461826976
  C   1.09240080683061      0.67534335949265      1.39173737555093
  H   1.75235948723324      0.32599848068082      2.18580332685962
  H   1.35105707449320      1.70603594961528      1.14525899368725
  C   -0.34951049159647      0.57412086398977      1.78856525189951
  C   -1.27259041763769      1.53676337952250      1.36670104921715
  H   -0.91939046024094      2.40037650353788      0.81540613336481
  C   -2.63093025001494      1.39082178783758      1.64218025800726
  H   -3.33129019438543      2.14817358828276      1.31512469206522
  C   -3.08415022970693      0.27350770603795      2.34226345840453
  H   -4.13756015734803      0.15641645883641      2.55695273687223
  C   -2.17316030416328     -0.69071464191688      2.76957774261428
  H   -2.51898028214664     -1.55817780003431      3.31488247292502
  C   -0.81550048038075     -0.53923322626299      2.49510862212880
  H   -0.10721055626481     -1.28778497917711      2.83093411999401
  O   -6.18760327647007     -1.34169421718966     -0.47571566021499
  H   -6.72953210349634     -0.78681759679800      0.10022245885696
  H   -5.70407920202564     -1.91446703349746      0.13480994966784
  O   -0.57916744514298     -3.25100790502014      0.47764886286721
  H   0.13430195927156     -3.23693370283188      1.14622258447081
  H   -1.37883435376863     -3.02281788072544      0.96674628339043
  O   2.36456307052300      3.61823777664425     -1.36925702505028
  H   2.89756438320882      3.27710901818210     -2.10838517892152
  H   1.72648800975839      2.89719782916526     -1.24549721025063
  O   3.75880134861476      2.05156939857908     -3.42992884570314
  H   3.04347156338481      1.51700148898343     -3.79602795670151
  H   4.13094227217608      1.49814256123378     -2.71174139577758
  O   1.66441330191683     -3.18104100752572      2.24108662814595
  H   2.32830816267212     -2.56072710948690      1.87708171763240
  H   2.10357445985373     -4.03995979305174      2.22355495054165
  O   7.24692996398699      0.74162269799214     -3.40590892225179
  H   6.81552668049985      0.16067758192955     -4.04417898617951
  H   8.03271246463058      0.24762670615068     -3.14233850715978
