55
Coordinates from ORCA-job inp
  O   -2.67035566703613      1.40152709999351      0.87677665643660
  C   -2.17304684466735      1.42780047694988      2.25479392727793
  C   -0.70486483936912      1.04071457562818      2.04968471730148
  N   0.18311439884746      2.05105512077460      1.97215322065384
  C   1.44299486111934      1.91154332500981      1.23154217941317
  C   2.45825494163752      0.94045598962663      1.85979177572196
  O   3.49063514208157      0.63801673848866      0.90736793116507
  C   3.30708494721062     -0.56569539777668      0.13782524023373
  C   2.29936520764473     -0.49121277169074     -1.01921484101928
  N   0.93804451743084     -0.87611639037914     -0.63735858790830
  C   -0.00033529437776     -1.19517724056941     -1.56007229814958
  C   -1.29664574586710     -1.79648296914724     -0.98530873382651
  O   -2.49017589014927     -1.23094688164250     -1.55399266667137
  C   -2.72336584802745      0.10367857510202     -1.12180802964856
  C   -3.02030636534707      0.17379252482116      0.38195322846520
  O   -0.41988600927219     -0.14620327621251      1.79240907957505
  O   0.18137451212524     -1.09935325626412     -2.78654142251151
  O   -3.46804571243046     -0.73598550595217      1.04980261273956
  H   -2.69681544576753      0.69610605294065      2.87997101352660
  H   -2.32947572270772      2.44619814343184      2.62309861777606
  H   -0.14851546292429      2.99419328540144      2.15851419690535
  H   1.88693484622957      2.90963429828560      1.14722301280261
  H   1.20035470013952      1.57008427026607      0.21508822716721
  H   1.96156482080265      0.01954235155620      2.20124154749703
  H   2.94601502642645      1.41074687199104      2.72539685277220
  H   3.05400501951368     -1.40901265120569      0.80601573547137
  H   4.29719524143369     -0.76092050321617     -0.29460736597232
  H   2.62218492982983     -1.18166404027823     -1.81261211827183
  H   2.31931478356751      0.52071241619676     -1.45710335992023
  H   0.63776466363215     -0.78201758971839      0.34199255077626
  H   -1.31365570282514     -1.73459519870619      0.11360210396850
  H   -1.30624569395294     -2.85693022642680     -1.27272036740721
  H   -3.59460607584004      0.47971478376655     -1.67739400074766
  H   -1.86652578861924      0.76375114530819     -1.34183084106135
  O   1.27775705758952      1.24441008463225     -4.02806491934282
  H   2.21805538441839      1.12611818371883     -4.20439799154738
  H   1.01484017909899      0.41508247575966     -3.59045323026707
  O   -3.25762926787779     -3.73283982178320      1.21277566822557
  H   -2.62354774412820     -3.36648881182516      1.85821937328189
  H   -3.57608639861374     -2.93614237829088      0.76888130730269
  O   -1.47699885662050     -2.46667479670330      3.08453517701119
  H   -1.19186796457632     -1.64420414922629      2.64323936335943
  H   -0.65521710579905     -2.94995925100806      3.23265792091647
  O   4.39993618749671      2.76621696901058     -0.90265809782267
  H   5.24124136476699      3.06015804607317     -0.53488738244479
  H   4.09315611105227      2.09514887656731     -0.27080394638728
  O   6.17674503464908      1.01335400369022      1.90878405432075
  H   6.37931261835095      0.32918037454121      2.55670901489530
  H   5.27054001081720      0.80598640176743      1.62442598167641
  O   -1.92797423785051     -0.29953472050211     -4.62689291583383
  H   -1.32207166415594      0.17181861463258     -5.21000815300171
  H   -1.34632297002445     -0.64744432178222     -3.92862813430445
  O   -0.84377173593944      4.75869936274056      2.46656697500381
  H   -0.71839486093662      5.31386941355519      1.68685688986824
  H   -0.33935673579998      5.20764292610991      3.15651453397404
