55
Coordinates from ORCA-job inp
  O   -1.34492863016502      1.28694372626322      0.17475113543204
  C   -1.01119919838821      1.76605054151425      1.50147604012763
  C   0.21042146644237      0.97372547445014      1.97674780175601
  N   1.22683121484629      1.71084048840288      2.46388587826998
  C   2.46802144892407      1.13643513210492      2.98229968261727
  C   3.59269149653364      1.10952576971018      1.94632941851881
  O   3.30792147186629      0.18413660066255      0.88347984891597
  C   2.92047148801496      0.79308939195749     -0.36053399947752
  C   2.45326135902695     -0.31381109747065     -1.28787539336426
  N   1.23790131661737     -0.94032647213721     -0.77374180412564
  C   0.29485132347077     -1.48056839179015     -1.57276740138137
  C   -0.91399885047928     -2.07544595048459     -0.82888345748825
  O   -2.16552891449196     -1.64944016294026     -1.39347912204537
  C   -2.32862887056348     -0.22900046395151     -1.36317456898638
  C   -2.27221919003902      0.29934520382916      0.07368094965377
  O   0.22335119153557     -0.26873380222673      1.89415534542248
  O   0.37000123499513     -1.51412553793171     -2.81477784743387
  O   -2.94587887251976     -0.12453467447228      0.99479669528970
  H   -1.84478876598228      1.59607318898118      2.19710447008696
  H   -0.81750874647224      2.83924147978942      1.40002715428121
  H   1.14372131403883      2.72488073807615      2.44721597042349
  H   2.25235139583201      0.11284166013860      3.31456929807567
  H   2.78760144787813      1.72797626801646      3.85218588769720
  H   4.51409156453833      0.76857063287921      2.44422595279128
  H   3.77703150896890      2.12079993955046      1.54669976123292
  H   3.77766150357214      1.31786416145458     -0.81920864836631
  H   2.10831138371415      1.52463784184275     -0.20278648337124
  H   3.25361147957133     -1.06321004261821     -1.40237311682215
  H   2.24013141510481      0.10125904695755     -2.28302124459931
  H   1.05823131163855     -0.87772682089241      0.23573890553890
  H   -0.86962882311689     -1.83806702712280      0.24811905324281
  H   -0.88986882224430     -3.16659482972890     -0.95052465511175
  H   -3.32599899979563     -0.02050615377616     -1.77258243815983
  H   -1.57068887282939      0.27887600340011     -1.98049938355587
  O   0.24296499149339      0.89931165992066     -4.31195333096043
  H   1.02781742998008      1.00950462987724     -4.86264157839607
  H   0.37858737879460      0.04208978053033     -3.86697293938484
  O   0.33551374130185      2.72255468848132     -2.09888511700117
  H   -0.12888333137432      2.25184538395040     -1.39576789634700
  H   0.30782961610621      2.10099507075064     -2.85217779397546
  O   -1.43853188805681     -2.18426480449361      3.27597125403982
  H   -0.88226034834826     -1.57467961584466      2.76008609797686
  H   -2.05659797660399     -2.55761805188665      2.61765269440216
  O   -3.50118130419035     -2.95503368467981      1.43177818563427
  H   -3.49407259955250     -2.09047617744282      0.98952201093252
  H   -3.31128181143835     -3.58550460778391      0.72627712387390
  O   0.95189267059467      4.64283372022319      2.25177590249375
  H   1.79644112520687      5.03437003197485      1.99599390951260
  H   0.74559009348549      5.06335478466346      3.09585642346669
  O   -1.84083906626446     -2.39754332125979     -4.40032768029185
  H   -1.09134691694406     -2.13233713918096     -3.83484692376269
  H   -2.58276124149742     -2.38106475924116     -3.78477853995296
  O   -3.23937730006466     -0.14430927930497      4.18483482199055
  H   -2.61550415534078     -0.85895927091245      3.94779434074823
  H   -3.54496602490455      0.16449015785586      3.32369291499776
