92
Coordinates from ORCA-job inp
  O   -0.84864678097027      1.77686049459630      0.45118588221109
  O   3.19059559625115      1.11822735953988      1.63193402282083
  O   1.06611996512705     -1.77040866342403     -2.87017943096182
  O   2.08825389962141     -1.99169634952625      2.21547822657014
  O   -1.74168522134812     -2.57809933928253      2.64583150611699
  O   -1.87649391769822     -1.25412215328067     -0.73465753851226
  N   1.85102936012297      2.15670469029636      0.14416215846931
  N   2.29354647431215     -0.33765182000965     -1.61461925121611
  N   0.66022905689811     -1.51496981577566      0.49442237437665
  N   -1.18011703580416     -0.40191172110938      2.22806812476125
  N   -3.39757922677058     -0.15151400554867      0.55002388848363
  N   -1.17218094531428      1.32519118701055     -1.74693554612500
  C   -0.41076899576833      1.75074886704113     -0.72009476501259
  C   0.98688994326134      2.31402749982852     -1.02855057224947
  C   0.89477061466927      3.85029870544845     -1.16528706860137
  C   0.85058931558718      4.33053674206877      0.29688850339211
  C   1.70133879518929      3.30607215130271      1.07171325220320
  C   2.66148794912692      1.13160756187406      0.50360766865600
  C   3.14455109109662      0.04145742425783     -0.48625222737421
  C   4.51084823652320      0.49937572916779     -1.02927061558018
  C   1.54674228572336     -1.47441197118655     -1.76751289016418
  C   1.31946967603377     -2.33804185336247     -0.51297541058511
  C   0.51871020451742     -3.59955186089070     -0.82979204891074
  C   1.06038707949554     -1.44505410546186      1.78723913818204
  C   0.21165316534988     -0.50328564320095      2.67569480608731
  C   0.35066522079536     -0.82947893233587      4.16253947808640
  C   -2.02854051424688     -1.46182341218277      2.19204445487321
  C   -3.43849889973818     -1.17734930690245      1.60081980700917
  C   -4.12120850323713     -2.46360376747110      1.13328868089338
  C   -2.59348337849340     -0.25712931120670     -0.52978177521420
  C   -2.57524231458304      0.93197838972680     -1.49597064542198
  C   -3.09825635059663      0.55079814227612     -2.89825103727788
  C   -1.83204823259959      0.13881964448024     -3.66706094377502
  C   -0.77174969716888      1.11773240614004     -3.15628807625456
  H   1.42299240942810      1.85756033959468     -1.91656374171504
  H   1.80217436947392      4.20566187594888     -1.67383121132415
  H   0.02400004493865      4.16484758318263     -1.75522044105920
  H   1.24265166051830      5.34907339596837      0.40642987483823
  H   -0.18190687275941      4.31777789519528      0.66776758137461
  H   2.70526582916701      3.67934534347579      1.31896578726005
  H   1.21860706621685      2.98009631025476      2.00270090827332
  H   2.50475663579816      0.11754230916153     -2.50319156608761
  H   3.29489101445089     -0.83660763306981      0.15508303449297
  H   4.39149831361666      1.37847907929735     -1.68100262116398
  H   4.97311968787046     -0.31100861116515     -1.60847097507085
  H   5.17566338692430      0.76959307064246     -0.19992278823679
  H   -0.28201291717672     -1.19990555066827      0.23575679268496
  H   2.30211224542833     -2.61835504404117     -0.10097171061938
  H   1.04007415209475     -4.20903753933418     -1.57954581349123
  H   -0.47133421622431     -3.33005366853555     -1.21697165013376
  H   0.39720950373988     -4.18837378741684      0.08907758493357
  H   -1.40988813783970      0.44197931617892      1.69172623496489
  H   0.64358842514481      0.49370227266532      2.48926569648823
  H   -0.19159791253959     -0.08025212517274      4.75458529091110
  H   1.40950265620109     -0.80980022179917      4.44779145727441
  H   -0.05707547207553     -1.82357723177879      4.38153806778612
  H   -3.90853969807310      0.71503279924064      0.69779126960332
  H   -4.02211555841367     -0.73543284007433      2.42204127856998
  H   -4.18136149621314     -3.17869252700675      1.96260308644854
  H   -3.55139925182610     -2.91997815701312      0.31505001353246
  H   -5.13701634315693     -2.23448379798845      0.78523249605639
  H   -3.12090551871393      1.78176340773980     -1.06181538759215
  H   -3.56450629213981      1.43404811938292     -3.35689912174479
  H   -3.85147110978646     -0.24581000540860     -2.84987581225450
  H   -1.95705701583384      0.19554591696983     -4.75561004784506
  H   -1.53281631537758     -0.88092456868203     -3.39031064010284
  H   0.23579364640286      0.69107239957609     -3.21483193100661
  H   -0.79543748804514      2.07590639164464     -3.69879631994862
  O   4.88434857811911     -1.03619919261423      2.50187936144809
  H   4.17736045021433     -1.69205335183319      2.56563170049718
  H   4.39361391610626     -0.25555163733566      2.18730835774216
  O   5.53495027932604      2.76354623814984      2.16465281011216
  H   6.25474870755751      2.17248517293330      1.91582373871658
  H   4.73662758842528      2.23701621072932      1.99524408773110
  O   0.43278491216261     -4.45843450509760      3.00666742839872
  H   -0.27982094686067     -3.80668973923911      2.89447193442152
  H   1.22935448083216     -3.93695214436071      2.84047572699997
  O   -2.44582417226229      3.40531045406177      2.17088226823941
  H   -1.85559679706201      2.90219437358177      1.58158710638131
  H   -2.19653476014314      3.11770106677369      3.05807597272762
  O   -4.84589189974046      2.29826919395781      1.24378097981797
  H   -4.08170502340206      2.73893491440981      1.67293576036539
  H   -5.44150479972092      2.07910002561850      1.97041216313709
  O   -3.06653890710706     -3.20167356336184     -2.58212857007879
  H   -3.27432785435671     -3.99028766705101     -2.06551414966808
  H   -2.68501895299110     -2.58564983464261     -1.93282266237073
  O   2.32993521390832      0.09068831166297     -4.69097422037988
  H   3.15091954403826     -0.24251542479988     -5.07287496474861
  H   1.87309670251535     -0.70641700993329     -4.37066582813214
  O   -0.71930851036262     -3.61735106677232     -4.22694129610405
  H   -1.54285969577487     -3.54494694861255     -3.71164534037057
  H   -0.09516086273493     -3.08039716375278     -3.71255607619301
