55
Coordinates from ORCA-job inp
  O   0.99137190549072      0.57856865025335      4.07078023780510
  C   0.53690211377139      0.96893987157905      3.02123780313431
  O   -0.12793807830119      2.12246472255333      2.91019609263075
  H   -0.38602802376570      2.26604425174322      1.96617373954165
  C   0.75700200803152      0.19123710196629      1.72158655996006
  H   1.10032189808816     -0.79474890349681      2.02423504821744
  N   -0.45611807130410     -0.02736138017429      0.94566235606174
  H   -0.73181800516890     -0.98751695725957      0.73839150624140
  C   -1.09814790405257      0.92137987286792      0.24886078195380
  O   -0.88315804417636      2.13751330162645      0.36449465803318
  C   -2.14972815446148      0.38918646363702     -0.71479036430876
  H   -2.63402796530066      1.24291036341434     -1.17733411412366
  H   -2.88764792282532     -0.18462049531107     -0.15199385447646
  N   -1.58869759522545     -0.46160158713892     -1.74077638575431
  H   -1.35635801737155     -0.11564625482596     -2.66219772120383
  C   -1.23645952895306     -1.73620188154281     -1.50421132635371
  O   -1.36265748514005     -2.29446945910945     -0.40950608234944
  C   -0.62096565144502     -2.45590898574619     -2.68724892781765
  H   -1.06925822706269     -3.44951892920136     -2.72413442445047
  H   0.42930133176156     -2.58754966491798     -2.42833655366529
  N   -0.72541838570598     -1.69366942189661     -3.92959368649594
  H   -1.50152805920683     -2.02118406250040     -4.48890739094951
  H   0.11015156226948     -1.80999132269963     -4.48501143562937
  C   1.86844195007931      0.87682004406528      0.90368051535656
  H   1.60178191835951      1.91638680626321      0.72261003610334
  H   2.76814190435765      0.86661604831226      1.52162489634416
  C   2.11794191360166      0.18135276706740     -0.40302781717599
  C   1.69722195777086      0.75653545007892     -1.60544297537923
  H   1.18767194906991      1.71222071372483     -1.58159604026223
  C   1.95072191147921      0.12837322932749     -2.82431539918118
  H   1.63496194454815      0.59650950373229     -3.74696810996724
  C   2.62328206014617     -1.09205086644572     -2.85261172151501
  H   2.84630189293849     -1.57041998642080     -3.79775042571323
  C   3.02798188443693     -1.68714993832675     -1.65688163697398
  H   3.55426190632564     -2.63219766087997     -1.67168342203458
  C   2.77365192686201     -1.05383312106867     -0.44271676865781
  H   3.10923190197422     -1.51003938338715      0.48115644153262
  O   -1.04484386000325      1.14038999589158      6.08656564992305
  H   -0.22393074497492      1.14557962184315      5.56591298441630
  H   -1.32803165043632      2.06285077891801      6.08718448624520
  O   -1.12830103663433      3.87383691097813     -1.87957837550568
  H   -0.26712956524226      4.29968514143549     -1.97127478498842
  H   -1.04794344080872      3.33787412662970     -1.06840390928015
  O   0.53243824212713     -3.70646232310288      1.31147199440897
  H   0.33095654036081     -3.22094096687802      2.12786061621186
  H   -0.08383171898898     -3.33700643009556      0.65855326323860
  O   -2.39822972039714     -0.43536963154653      4.00849371581900
  H   -1.71156842676582     -1.11538334698957      3.91163923030250
  H   -2.05663851404646      0.12026832621405      4.73146395349391
  O   -1.39452648562476      1.81846676036456     -3.81052165386057
  H   -2.28568327943741      1.89845674021612     -4.16951486129736
  H   -1.32298583155364      2.56012187988313     -3.17593194693043
  O   -0.07173206038835     -2.27653654472465      3.87140085937506
  H   0.57178402978248     -1.62649343096146      4.19248925329057
  H   -0.12579424272237     -2.93208355898241      4.57890774676027
