55
Coordinates from ORCA-job inp
  O   -1.38166364262577     -0.55194036220281      1.01631408181025
  C   -0.26314359156014     -0.17087770317738      1.86430173601163
  C   -0.41723361845762      1.24047062331648      2.44048979064338
  N   0.71255642666151      1.98028808449696      2.54597571123171
  C   2.05929616875857      1.66392849262732      2.05125858930509
  C   2.21238982312313      1.68360254568442      0.51590041792771
  O   2.60711581425956      0.35673762706877      0.09599282128906
  C   2.65764595958849      0.18444712803351     -1.33182904906080
  C   1.30206449603354     -0.20767681884463     -1.92171452410347
  N   0.82422800072092     -1.41512624414047     -1.23691393145741
  C   -0.24413434490529     -2.19523792777761     -1.52698830250641
  C   -1.21791296780710     -1.71230668368840     -2.61344902787923
  O   -1.82914534586608     -0.43467414911274     -2.35975394691196
  C   -2.51587153772063     -0.36087634423255     -1.09758131696127
  C   -1.56075530150830      0.23734282246492     -0.06738872364138
  O   -1.52229340807834      1.64394229924257      2.83889839291697
  O   -0.45839324633313     -3.26487096021160     -0.92698114077440
  O   -0.97749238644212      1.29519530458232     -0.24195437710068
  H   0.65621631231100     -0.29351580500010      1.27851917921267
  H   -0.27370355777912     -0.89352445812483      2.68883684188178
  H   0.57581628230689      2.90489000658222      2.95168365172652
  H   2.38031604440639      0.68014084201135      2.42299885201441
  H   2.72686614037226      2.40149885181434      2.50987369576379
  H   2.98983624309181      2.40244492581684      0.20623341535523
  H   1.25735875335459      1.97188356694789      0.05087120005349
  H   3.38712601894386     -0.62027930385050     -1.50678706022635
  H   3.02298613527745      1.09726692873855     -1.83068256574821
  H   1.43105732238407     -0.40106885348383     -2.99807168283595
  H   0.57469113188164      0.60667477705953     -1.80636040158695
  H   1.40646527579823     -1.76137862867362     -0.47288928256834
  H   -1.98562339910813     -2.49553459845750     -2.71346493906236
  H   -0.69339362645622     -1.59856724829564     -3.57288675315260
  H   -2.89488314529865     -1.34190404458675     -0.77556157752982
  H   -3.35746320021129      0.33275457188931     -1.22782931434420
  O   -2.27554066828031      4.34254187342153      3.10252045641334
  H   -2.52592285523232      4.65072563628844      2.22303430226324
  H   -2.04899422352618      3.39848534426184      2.97478398905222
  O   0.46820758563703      4.78225333113345      3.59611115445468
  H   0.60655130237213      4.81285498361270      4.55026238825592
  H   -0.50550553392602      4.80010694205193      3.49075950244634
  O   -3.98872273340346      1.21694604011725      1.43107469579610
  H   -3.17812351295161      1.24376123027116      1.97000820534609
  H   -4.39221557713627      0.37140772943829      1.65865125094037
  O   -0.83954685134835      3.18499741800043     -2.51050552800414
  H   -0.94675833227706      2.55328977139728     -1.78332789811756
  H   -1.17758781556009      2.69331391541793     -3.28015669767093
  O   0.23243535884504     -3.51824598298473      1.80600077728170
  H   -0.04793906405967     -3.48785013966168      0.86811773936104
  H   0.28554756578524     -4.45970673368281      2.01059538152062
  O   2.74545390143527     -2.49224190940903      0.97466751400519
  H   2.85230008208647     -1.56464269676778      1.22573616550698
  H   1.95315552225841     -2.80037997013146      1.45800532938813
  O   -1.97626876071852      1.44335123657860     -4.54182301331625
  H   -2.01699815485009      0.73165725056349     -3.87945713632497
  H   -1.31263350658766      1.13829512200087     -5.17255368162752
