125
Coordinates from ORCA-job inp
  C   0.91492001134067      1.92561978370883      2.00859998253122
  N   1.43809995789240      1.88647062458956      0.63120016253530
  N   0.98753022780082      2.99736983906443     -0.14377018325797
  C   1.14697985781240      4.34739005914273      0.42606009620879
  C   0.55355006118297      4.40541001404473      1.83360000122915
  C   1.13618995079621      3.28311004547917      2.69770996990312
  C   0.70041968080816      2.81014003326014     -1.47279987406262
  O   0.38891008544021      3.74844992190861     -2.21556010570957
  C   -0.53019000554756      1.41179003942984      2.05111999570849
  O   -1.00069999336274      0.60554998420993      1.25367000410206
  C   0.77590010722756      1.35156998405345     -1.97518001425945
  C   1.12312996817399      1.26556000290312     -3.46738000330497
  C   2.60824000280843      1.49212999598178     -3.64998000458740
  C   3.10115000070406      2.75915999619995     -3.98797000474058
  C   4.48338993574079      2.97322989287113     -4.09551029131753
  C   5.38346000210223      1.92401000680411     -3.86425998368053
  C   4.88755000235502      0.66301999860426     -3.52019000703907
  C   3.51115999914864      0.44222000033030     -3.40982999458473
  O   5.01264296427579      4.20030287726427     -4.42641214742951
  N   -0.44633002478137      0.63637002879601     -1.58303999034109
  C   -1.61751998709269      0.53457998777267     -2.28619000544779
  O   -1.80402000777227      0.98465000113799     -3.41956999917063
  C   -2.72064003166397     -0.26681001346130     -1.54475000242915
  C   -3.65958999011221      0.65623000470759     -0.72519000402060
  C   -4.28675000224052      1.74420999871426     -1.60560000516609
  N   -2.13403993425944     -1.29300996204058     -0.68701001491761
  C   -1.54790007836245     -2.42010005774470     -1.18773997902404
  O   -1.72557997857912     -2.79413996814709     -2.35603000695325
  C   -0.61339997905955     -3.14641996761093     -0.20560000380745
  C   -1.34818000148566     -3.42397001457131      1.11560000151637
  C   -2.71795000376829     -4.07820999587942      0.94748999777857
  C   -3.44536999904451     -4.26840000204857      2.26627000244727
  O   -2.91520000242837     -3.99124999844385      3.34222000035603
  C   0.67622000229960     -2.26411001436200     -0.08433999419881
  O   1.07665999746226     -1.87771000143727     -1.42057999911560
  C   1.94855000158221     -2.88188998980496      0.55266000084823
  C   3.12114000886236     -1.90177002219541      0.34897000382980
  C   1.81174999774947     -3.26793000164991      2.05710000023114
  O   3.03559999881172     -3.89608999821337      2.53272000218229
  C   1.40807999823589     -2.10892000078620      2.92235999791198
  C   0.26236000065183     -2.08281000066554      3.63153999762704
  C   -0.30864999939157     -0.89969000246583      4.24705999767318
  C   -1.64190000043120     -0.77316000125128      4.42265000200715
  C   -2.33262999907063      0.52001999773539      4.74372999823719
  C   -2.50159999629442      1.37633999580579      3.48038000438621
  O   -1.18405000603445      1.90306000709259      3.10688999534995
  H   -3.11372999724520      2.26484000146883      3.67345999796212
  C   -4.86326000117640     -4.78083999932173      2.18529999968663
  C   -4.74553000107137     -0.17551999947912     -0.02685000200858
  H   -2.92038999778967      0.80609000036272      2.64083000196430
  H   -1.76880000223034      1.11183000129287      5.48094000185926
  H   -3.33643999880611      0.34203000028806      5.15665000083671
  H   -2.27985999810483     -1.63015999769061      4.17822999755273
  H   0.35172000222287     -0.04753999988106      4.44605000126291
  H   -0.38012000123636     -2.96946000233142      3.63212000233460
  H   2.05412999825804     -1.22371000188402      2.89511999774845
  H   1.07011999971094     -4.06985999834002      2.15472000361393
  H   3.72460000174892     -3.20807000034854      2.58958999141491
  H   2.17119999926559     -3.82012000114648      0.01585000053895
  H   4.04057999611975     -2.26853999886730      0.82678000534043
  H   2.88439006133399     -0.90928990214386      0.76314996388861
  H   3.33204999814681     -1.76616999481142     -0.71630000024336
  H   0.42032000134177     -1.35794999712900      0.50015999841138
  H   0.46389999955285     -1.17139000274089     -1.71735000285621
  H   -0.33856000478419     -4.09150000666274     -0.69685999744460
  H   -0.74056999811029     -4.08058000097792      1.74609999909100
  H   -1.46222000067651     -2.48922000166553      1.68602000224593
  H   -3.38040999926414     -3.49369000218933      0.28537000142068
  H   -2.63434999917337     -5.06777000063665      0.46534000055891
  H   -5.51479000200444     -3.95165000140467      1.86230000031166
  H   -5.20379000083461     -5.13552999852510      3.16507999895116
  H   -4.95996999867802     -5.57507999748261      1.43143000008437
  H   -1.88223001486838     -0.99957000533451      0.25710000434295
  H   -3.30097998568275     -0.76585000113781     -2.33364000848704
  H   -3.04276000071916      1.14517999703863      0.04783000092837
  H   -5.37705000077877     -0.68845000129403     -0.76916999963362
  H   -5.39119000217328      0.47543999846326      0.57982000190385
  H   -4.31880999743024     -0.94095000194112      0.63697000236899
  H   -4.97074999987776      2.36054000212327     -1.00507000155596
  H   -4.86442000152299      1.29427000007232     -2.42796999914211
  H   -3.53089000458844      2.40619998359566     -2.04804999444142
  H   -0.50615999547069      0.48843999298564     -0.56499000085282
  H   1.57239998516488      0.84292999649575     -1.41837999459010
  H   0.85321999945459      0.26021999708216     -3.82118000116573
  H   0.52832000472126      1.98791000417291     -4.03659999889188
  H   2.40457000017676      3.58483000138862     -4.15328000070736
  H   4.28794547116743      4.83975571160354     -4.56190624866191
  H   6.45529999922572      2.10630000223828     -3.95505000129100
  H   5.58705000256391     -0.15549000111762     -3.34005999860765
  H   3.13031999953462     -0.54301000116616     -3.13158999708714
  H   2.46208994913678      1.93783951684728      0.68880998454566
  H   2.22566001775555      4.58230998971707      0.45483997817751
  H   0.65761997299051      5.05005995151926     -0.25650005145454
  H   0.77394998946396      5.38746000082538      2.27499999768423
  H   -0.54261999848149      4.30942999751551      1.77592999772657
  H   2.22353000509122      3.42246999396400      2.80842001148671
  H   0.70048000417602      3.27939999219817      3.70345000442940
  H   1.47861002266540      1.14422005064451      2.54763001553352
  O   3.05733170960978      6.14573160487351     -4.52613128131794
  H   3.48137803282083      7.00748018024313     -4.61556477858217
  H   2.41715355229488      6.25702376425794     -3.78800860127840
  O   0.78666253122621     -3.96960987112407     -3.41070116427062
  H   1.10624662834748     -3.30629033329524     -2.77549860718495
  H   -0.17031331262611     -3.89151457812442     -3.28197054562408
  O   5.13693557748590     -2.00988859302080      3.23810251674274
  H   5.82190136136833     -1.81846190721771      2.58558798457632
  H   5.61013440620116     -2.46716444562343      3.94439869210505
  O   -4.45618865448463     -3.30818941034009      5.66203441379303
  H   -4.30301103235274     -3.96222494126136      6.35301363647226
  H   -3.94347053519781     -3.64156180555059      4.90345033073397
  O   -3.93427610832305      0.19017703161666     -5.07653580320765
  H   -3.20966415256748      0.50980290014330     -4.50026170316819
  H   -3.59861955480012      0.31529305928833     -5.97236248801277
  O   1.19190263201186      6.42969860951167     -2.50205041054616
  H   0.86894893845992      5.51695791769902     -2.37492282142362
  H   0.42717807753417      6.91044518229044     -2.84281933589818
  O   -3.83595376237322     -2.60734721305992     -4.35915695026029
  H   -3.12614110356814     -2.61977802244262     -3.69681185243931
  H   -3.87841048735598     -1.67402416122795     -4.63917431301750
  O   -2.07887019761661      4.82741297177768     -0.96929809654205
  H   -1.36161015857030      4.50890933303962     -1.53827674544042
  H   -2.85621172324789      4.80542926805698     -1.53944368890528
  O   4.28456294573848      2.09431701568526     -0.43705365080708
  H   4.14217931487488      1.57346359150781     -1.24137342576934
  H   4.39183713855753      2.99508426811735     -0.76753007822572
