58
Coordinates from ORCA-job inp
  O   -1.37344511114749     -2.40270402909131      1.77917537149662
  C   -1.95375564416465     -2.64901148275422      0.74853234374655
  O   -3.17200487128843     -3.22734162067791      0.69872591250088
  H   -3.43516545550683     -3.36725190455282      1.62099429695733
  C   -1.41061490200135     -2.42382617400535     -0.65298468232654
  C   -0.81968534003358     -3.72588984870644     -1.18000993108610
  H   -0.45742524206477     -3.58110828084639     -2.19545814424999
  H   0.01528474318473     -4.03904706992252     -0.55262341264489
  H   -1.57138522438180     -4.51094986549034     -1.18193878959893
  H   -2.24386526202387     -2.10329879827025     -1.27565118636493
  N   -0.39799540880965     -1.39871580190911     -0.65125352592357
  H   0.56381473190819     -1.68954714301609     -0.54510647217724
  C   -0.72814519232886     -0.15556128385987     -0.20841879019358
  O   -1.89027522266166      0.18581676675911     -0.01946509529919
  C   0.44907474271181      0.76784643127194      0.04994146337944
  H   1.11628471455191      0.77470565391710     -0.81483835099136
  N   -0.06831531583702      2.09088348616075      0.25313676023351
  H   -1.06570524926129      2.22386237204995      0.36081815324380
  C   0.73892478619731      3.16394491187160      0.13407926684836
  O   1.94471468151231      3.08584760058454     -0.09575197236523
  C   0.04415449187646      4.50680286624910      0.28812392886376
  H   -0.02208516034777      4.93076474534791     -0.71365065769123
  H   0.72278475700427      5.14471667868183      0.85808181010145
  N   -1.30312501144269      4.38157723646800      0.83500331091206
  H   -1.26921528517358      4.30973527364953      1.84349203115038
  H   -1.85040535513194      5.20322919411560      0.62014224230644
  C   1.26623462023049      0.28625174765158      1.27420600291298
  H   1.86640468934654      1.14092846134665      1.58612591463700
  H   0.58033473504843      0.02528272088465      2.08136305371116
  C   2.17059480267144     -0.86604419609281      0.94355294713707
  C   1.94755457588181     -2.14795005379161      1.45718817546864
  H   1.11152479954908     -2.31031762558488      2.12454629877815
  C   2.77820473803301     -3.20953595465106      1.09739608865725
  H   2.59724466684102     -4.19495062795470      1.50605473042044
  C   3.83929463049847     -3.00244592098075      0.21782839974634
  H   4.48235463787913     -3.82569269708925     -0.06176099679341
  C   4.07301465463541     -1.72603998103051     -0.29414696232058
  H   4.90082463325030     -1.55612234611527     -0.96921490481385
  C   3.24543463329128     -0.66604424746092      0.06744512955444
  H   3.43006466518362      0.32947017459311     -0.32006344253217
  O   -3.80667847151516     -3.63191563823579      3.33910047322713
  H   -3.08554973719034     -3.16247980455836      3.78099036502283
  H   -4.60564589445306     -3.18356464981476      3.64528319505955
  O   -2.96511175189343      2.30121852838040     -1.83172065294447
  H   -2.46368438562208      2.06669206534506     -2.62041658252166
  H   -2.69397800812949      1.62973089649902     -1.18930142594233
  O   -3.03490879010754      5.23968338117892     -1.79405194747561
  H   -2.88417493218482      4.27739571789923     -1.68732738747709
  H   -2.24536078173668      5.54069280562569     -2.25230636953052
  O   3.24186071367990      2.13114120700124     -2.45757363676151
  H   4.15512969865313      1.94438532858489     -2.20567817804896
  H   2.82126148713896      2.42455867779933     -1.62816234118521
  O   1.96626926536379     -0.26840208809118     -3.35756420025454
  H   1.24580664019039      0.03366603174500     -3.92152113539474
  H   2.38959166806686      0.55494221051852     -3.04816556200760
  O   4.52036561140975      2.59933065965969      1.15768064691417
  H   5.05935774530986      3.35777029939221      0.94343159118089
  H   3.65643398699523      2.80728621331490      0.77003465811683
