92
Coordinates from ORCA-job inp
  O   -1.10918203505899     -0.52300774243494      2.15457102315712
  O   0.39968938724009      2.31365549166018      0.44776738872966
  O   4.36537311744534     -0.65378082803824     -1.11414551079723
  O   1.67434090636076     -3.01027563243735      0.24798513875195
  O   -1.06496717980078     -1.04380819432059     -2.81088795978563
  O   -4.29871782633346      0.28129670966001      0.25645592226801
  N   1.51757008119941      0.81208930916967      1.73938113994540
  N   2.21106581864374      0.11908866955989     -1.15334537909611
  N   1.28482405902329     -2.34893962577139     -1.90271355111557
  N   -1.16040422813153     -1.30437252024867     -0.53479357700881
  N   -2.23970414402806      1.19018821750613     -0.17213686113400
  N   -1.77975150807254      1.61166385950682      2.53159878873614
  C   -0.83627296304683      0.64798632734968      2.50620587717535
  C   0.60201887625203      1.00289904103625      2.89610595584034
  C   1.15738752809332      0.03788521578692      3.96420894026927
  C   2.62883451064556     -0.15866289312043      3.56654398653679
  C   2.56870387152793     -0.18532045920197      2.03855618294206
  C   1.37546465010437      1.54545393736275      0.61844964403723
  C   2.45155465620504      1.39122332359283     -0.47450612131160
  C   2.45777625387038      2.56999319120554     -1.44461971384805
  C   3.17341500882462     -0.80236704051530     -1.41447589644599
  C   2.68797925291002     -2.05676244699627     -2.17684404710981
  C   2.91021141491149     -1.86988319375139     -3.68095868089326
  C   0.87968872815821     -2.71045312949287     -0.65570507631834
  C   -0.64242901000825     -2.68061180681219     -0.41588131822019
  C   -1.41408632382376     -3.70253084265220     -1.25844350083305
  C   -1.39457730427696     -0.62954063004549     -1.67754506760161
  C   -2.13947577889485      0.72320149841017     -1.54854337652090
  C   -1.50218806939189      1.79335876655603     -2.43587747307659
  C   -3.27888526397508      0.87389120157663      0.64101204967730
  C   -3.15903628504158      1.29527657365781      2.11798482416560
  C   -3.92985343645309      2.59676764085064      2.41920011372201
  C   -2.86425787739205      3.68858223567558      2.23558851187314
  C   -1.59847960152674      3.05629113093725      2.82564052329277
  H   0.68365752262268      2.04806151137857      3.22042613439843
  H   1.02634622428533      0.44517202759393      4.97380023238907
  H   0.61963252773890     -0.91765337121381      3.89391610795450
  H   3.24126723189287      0.69054875872782      3.90349005125700
  H   3.05655919070207     -1.08086866926723      3.97945498860139
  H   3.51685890366656      0.08560508463913      1.56014733967105
  H   2.25137712834360     -1.16655604203761      1.65240028896915
  H   1.25984350732636     -0.08813966728924     -1.45276909490298
  H   3.44240045168368      1.30578758273437     -0.00811683502415
  H   3.24921768181955      2.41930533022381     -2.19051845545423
  H   2.65073962498232      3.50685679220701     -0.90488918954503
  H   1.49456673383059      2.66532757870220     -1.96116920913349
  H   0.55717123605637     -2.03479555940698     -2.56206205205816
  H   3.30369102007718     -2.88464797843448     -1.80061448883307
  H   2.29602080735273     -1.04329604825320     -4.06805163294957
  H   2.64492811855770     -2.78951348251787     -4.21925121224634
  H   3.96498006485190     -1.63935450599217     -3.87685969443146
  H   -1.34554461600286     -0.84977144375892      0.37151214521179
  H   -0.75785164967812     -2.92756283011177      0.64625578599757
  H   -2.47896030281894     -3.67060291437184     -0.99057814540252
  H   -1.02982803406352     -4.70966617777174     -1.04689907829645
  H   -1.31678032857059     -3.50550886600756     -2.33220727298552
  H   -1.41081371152453      1.66202966681012      0.21585639540307
  H   -3.16266246521293      0.50873074155464     -1.89546299999491
  H   -0.52219343487496      2.08623931869020     -2.03329930532617
  H   -2.14225259506963      2.68415945057586     -2.46516358521457
  H   -1.36890923786722      1.41031340993687     -3.45395388450423
  H   -3.53781695832678      0.44036794231256      2.69380854968442
  H   -4.28512474036327      2.57325097032350      3.45904637943981
  H   -4.79991255173443      2.71451401231146      1.76199306464631
  H   -3.12414749026936      4.62978640951539      2.73515784063191
  H   -2.71285479216093      3.89835379152463      1.16636810769395
  H   -0.68267450363408      3.42285720411149      2.34858795230143
  H   -1.53674042452384      3.20701714493435      3.91349654206468
  O   -0.32315601737014      4.88168582944136     -0.62369689885985
  H   -0.00296051683735      4.00792195565894     -0.34212158016016
  H   -1.23550199181109      4.71579199202193     -0.88726317757880
  O   -5.27633896369944     -0.17834060151091     -4.02338873907038
  H   -5.42795190247187      0.72935530244326     -3.73412292444729
  H   -5.16047130212491     -0.68314833237842     -3.19018300602076
  O   -4.74165787942266     -1.69366876924378     -1.72240600464190
  H   -5.46379207720870     -2.26044860677955     -1.42483173572356
  H   -4.60912210844519     -1.05805122593012     -0.99348588736589
  O   -2.67435644839723     -0.52003171528049     -5.18174600685455
  H   -2.11567938923358     -0.66208136617148     -4.39991105227255
  H   -3.56052032466363     -0.36347256567310     -4.80386017076449
  O   1.00403684954747     -3.54877648574424      2.99192443161340
  H   1.18046942119543     -3.40962780404853      2.04434537097968
  H   0.78383392547812     -4.48535099809325      3.05244891451713
  O   4.58614310153452     -2.97198085790404      0.87029116213462
  H   3.63734349088131     -3.05415944450727      0.68496465507959
  H   4.85680221839011     -2.26311034247032      0.26992481597824
  O   6.03150859210639      0.70838349459016      0.82465011859259
  H   6.17697007165576      0.02127796725360      1.48544752445482
  H   5.50200007578024      0.26437325527814      0.14175322651323
  O   -6.51628291640430     -0.12836492291746      2.02659015099850
  H   -6.23665158565594     -0.78679083907687      2.67241865641051
  H   -5.73494325875199     -0.01414052695421      1.45570307548384
