116
Coordinates from ORCA-job inp
  N   1.79379460641934     -0.63019479870628      2.21813530123136
  N   1.95336140789977      0.66635773279010      1.68262766261848
  N   -1.12291187541493     -0.84721353526975      0.70404814237923
  N   -1.81581529638418     -1.96543888787290     -1.82201468914225
  C   2.90113508343856      1.09059655364793      3.89890496179953
  C   3.85803529746283      0.02010695528824      3.35141541659766
  C   3.05435140356898     -1.15959606978884      2.76489787667079
  C   2.02076949620655      1.67736313631602      2.77055331262698
  C   0.59191887340080     -1.24124114471026      2.42427099098736
  C   -0.66489528305669     -0.44379738343596      2.03114372871782
  C   -1.79540139605571     -0.64175447225321      3.06065122401215
  C   -2.97804141797285      0.22873373296814      2.70188368927462
  C   -4.06210310168014     -0.30375492333662      1.99136501031037
  C   -5.10678777404800      0.52779541765894      1.56334009023059
  C   -5.08470296013792      1.89713250962905      1.85585720316357
  C   -4.00848263257849      2.42402861381298      2.57219647568630
  C   -2.95623910169404      1.60246108366924      2.98986276364277
  C   -0.86081054429065     -0.14375180323661     -0.42166922657213
  C   -1.70667611681094     -0.52172926102806     -1.65053845569199
  C   -3.12200958455890      0.11046926725847     -1.54406207197558
  C   -3.06508414538645      1.57377864402655     -1.09425677677997
  C   -3.86231607298685     -0.04414023422475     -2.87795958202509
  C   -1.10382421268494     -2.80298639556455     -2.63671956052910
  C   -0.15091632086101     -2.18977993020836     -3.66197398429122
  C   0.12693703434955     -3.20247300851260     -4.77811072831470
  C   1.17623131918100     -1.67171910266130     -3.00374741746369
  C   1.74993681335712     -2.62633221296004     -1.95304138322078
  C   3.20915788008992     -2.28986660231413     -1.56831175841522
  C   2.55650680115594      2.91350358888308      2.05365811309940
  C   4.53421325633221      3.92158659156687      1.17857141436582
  C   4.54563137552257      3.34334789617226     -0.22139404708793
  C   4.32041419855560      1.98332348715696     -0.44351071129712
  C   4.35529738914122      1.43625241601511     -1.74200371372897
  C   4.66206027102573      2.29416129824533     -2.81791636109269
  C   4.88952717395264      3.65668753655058     -2.60087252470683
  C   4.82531463873225      4.18772533370312     -1.30895237798254
  C   4.09388258504102      0.01463143203914     -1.99949467356383
  C   3.43399561243293     -0.84919728784594     -1.20318531614321
  C   1.98604710150148     -0.22618049339265     -4.72259782983729
  O   0.50179707003393     -2.40342561230692      2.85573548176078
  O   -6.16995151790213      0.05457019458697      0.83138486047950
  O   -0.05170475189794      0.79971117565544     -0.45658602874326
  O   -1.27617115410523     -4.03010548079161     -2.55261015827763
  O   1.84389577490060      3.66412932763576      1.40681596095094
  O   2.16909280438847     -1.45452452585183     -4.01372403833996
  O   3.90269356564073      3.01152122593240      2.12799511222572
  H   1.24923222697406      0.85698924075655      0.95131878819493
  H   -1.73925413317857     -1.65481515442892      0.65481537243343
  H   -2.51241486689676     -2.44916773559905     -1.25320803855791
  H   3.45246367745077      1.89611426482651      4.39889003642892
  H   2.23872180375964      0.63942996588370      4.65302603938759
  H   4.51200054722743     -0.35383086379019      4.15075429887434
  H   4.50364934962121      0.46406123362240      2.58188366852066
  H   3.61689138508215     -1.68099126117635      1.97528235340134
  H   2.78495303993746     -1.88997136808791      3.53774413932365
  H   1.02149092661407      1.94662759679354      3.16077953856854
  H   -0.44401072496016      0.62889106124026      1.96809554983042
  H   -1.39931741234315     -0.37311456215571      4.05058548048046
  H   -2.06936812593022     -1.70616241705501      3.09782618891019
  H   -4.09680245510041     -1.37364443104172      1.76649536742639
  H   -5.90360900376957      2.53114729092305      1.51399234602767
  H   -3.98957878550963      3.49081617826533      2.80180431964120
  H   -2.11618838681537      2.02807196069246      3.54311152711142
  H   -1.19213040479819     -0.08784752805649     -2.51777653813890
  H   -3.66435517162395     -0.45658993432083     -0.76555486865775
  H   -2.44423621287250      2.17136680674915     -1.77886375177995
  H   -2.65903282664183      1.67552272179232     -0.07858933180903
  H   -4.07817267580605      1.99770129232044     -1.08514480503526
  H   -4.89677324955983      0.31485042932262     -2.78233354405111
  H   -3.89457457146679     -1.09241146245126     -3.20738129858764
  H   -3.36638798379674      0.54884161905936     -3.66211800010699
  H   -0.65800914181246     -1.31669460168121     -4.10431539609578
  H   0.72302603475691     -2.73411185807403     -5.56989350403933
  H   0.67846733612134     -4.07201348404086     -4.39778694873352
  H   -0.81606923324230     -3.56246170470723     -5.21009624566446
  H   0.98061163273195     -0.70286792184391     -2.50564036327013
  H   1.70705091180607     -3.66689941764516     -2.31049542108999
  H   1.09885093023764     -2.57182298172381     -1.06476624486256
  H   3.86159927010016     -2.55555936001057     -2.41200575510757
  H   3.49233906989446     -2.93664587178308     -0.72042586274739
  H   5.55254243556151      4.04381401115141      1.56894071940091
  H   4.02481836677998      4.89472113752395      1.19991552308074
  H   4.09715947382882      1.32917768269591      0.39969329644406
  H   4.70579266906594      1.88957507892510     -3.83180464573967
  H   5.11223644331060      4.31144883061223     -3.44547826436107
  H   4.99784964437805      5.25376003031899     -1.14458885952852
  H   4.44364747027576     -0.35694356401454     -2.96877014480500
  H   3.00481137961505     -0.49782321503430     -0.25835930283933
  H   2.83424969030603     -0.12583037080920     -5.41111591074356
  H   1.04945183020637     -0.21766834500120     -5.30853201423127
  H   1.98234551165324      0.63059660774915     -4.02488261853102
  H   -6.09133882495593     -0.91199801046294      0.72443328828541
  O   -3.26596194433145     -5.48199367719146     -1.32371750462095
  H   -4.06488413801797     -5.44092343393603     -1.86348794500011
  H   -2.59509226922607     -4.97190487606184     -1.83020135749033
  O   -3.35513834444412     -3.43715741201562      0.54718588010468
  H   -2.82506755729040     -3.70023325747323      1.33133568373998
  H   -3.34724779525507     -4.23054256238696     -0.03645347985452
  O   0.12466104212282     -2.64250464385114      5.74563914214924
  H   -0.77057288762712     -2.32352957162508      5.90752201243543
  H   0.22568374672617     -2.56491036128474      4.78346142282714
  O   -6.01314131736083     -2.63138828281680      0.40315434382494
  H   -6.55267564107085     -3.12334611981048      1.03440881155174
  H   -5.09958647603099     -2.96921714408658      0.53751798686763
  O   1.18810641641127      2.67796460442942     -2.29356023565853
  H   2.13042410407115      2.46510526277599     -2.26303623201626
  H   0.77102164823542      1.96832916552392     -1.77698424118446
  O   -0.86295031327551      3.62350725369534      0.54091206921480
  H   0.01534395313072      3.64980003771631      0.95578919617754
  H   -0.83995147339149      2.78572067186223      0.06019940228035
  O   -7.25482782996233      1.64518146184060     -1.35561880361575
  H   -6.53041290486339      2.07588348725149     -1.82309959029779
  H   -6.81403087315426      1.13014544835246     -0.65940043073533
  O   -1.67158543479450     -4.22861185667250      2.66211430200207
  H   -0.90854194224414     -3.61809240147723      2.68427071299378
  H   -1.29377107942985     -5.07915487335184      2.40619250306648
