89
Coordinates from ORCA-job inp
  O   2.70951913474077     -1.68041332542750     -1.80353641430520
  O   -0.97554965339016      1.20377246179393      2.61162604227414
  O   -0.31198136791863      3.32560464420250      2.98379050252855
  O   0.01630653230068      1.08237733731476     -0.95110259718657
  O   1.76745536062671      2.30367274900481     -1.77061933031944
  O   -2.79396302264875     -3.08097860678053      3.20119351188302
  O   -4.27777013583229     -2.44270669542398      4.70152714206480
  O   0.45589226453902      1.76504575347107     -4.75181844964601
  O   1.10931683481522     -0.15941180214888     -3.73415015265584
  C   2.51592737010589     -2.45916711423596      0.40777113122053
  C   1.82162446315324     -2.98722879151445      1.71895953875933
  C   0.34800201410437     -3.27364667952766      1.69373623042679
  C   -0.65027117327945     -2.50687224722930      2.17348067448284
  C   -0.48064590223357     -1.17102212049837      2.86128112025369
  C   -0.53229027572448      0.00665917277457      1.87633681007673
  C   0.83380387186160      0.36549155713905      1.23242534254962
  C   0.92698058391265      0.13579249279758     -0.27976990990592
  C   0.54058852820791     -1.25470820469849     -0.78143011603305
  C   1.71659290219221     -2.24690271855891     -0.89569120528227
  C   1.04995817369831      1.80323468125249      1.63755572646091
  C   -0.09879355876805      2.24019120014301      2.46898431070527
  C   2.06378909250243      2.62190027124718      1.33568929148620
  C   1.21096411863034     -3.56607570711904     -1.49407536154031
  C   -2.07441321752075     -2.92786573120427      1.92915963543764
  C   -3.77845875602497     -2.23083375514688      3.60493393173979
  C   -4.20425088017733     -1.09933467884154      2.70183376661982
  C   0.57794168705790      2.02577907225276     -1.74407652846470
  C   -0.44507227442663      2.64251086658827     -2.64719861623748
  C   -1.02849686492828      3.81564086400822     -2.35757115513695
  C   -0.81219376319485      4.61076738210120     -1.10875665031934
  C   -0.73910347127149      1.84540694847451     -3.88604302388667
  C   1.30056733346858      0.72271273015361     -4.56713409406283
  C   2.46046078840522      0.76461397087628     -5.51901433011385
  H   2.22740781108024     -1.29309532709300     -2.56952833330994
  H   2.99966654861092     -1.49820254476660      0.63844125352757
  H   3.33757223191676     -3.14258492077999      0.14926359778871
  H   2.32704018501113     -3.92157697652979      2.00509036889934
  H   2.03711673840369     -2.27015798340812      2.52415868318643
  H   0.05666965071178     -4.21653877063575      1.22027686859797
  H   0.45880867320793     -1.12263345570877      3.42930267201478
  H   -1.28895552943391     -1.03558029077961      3.59454807690018
  H   -1.30147941602088     -0.15459480998028      1.10739857551739
  H   1.61455083026592     -0.25677850728253      1.69212089397054
  H   1.94726448344247      0.37525962154535     -0.60769226047094
  H   0.13129130560315     -1.12449450331398     -1.79262117134732
  H   -0.26024805336817     -1.69307858359192     -0.17671950953864
  H   2.89830473801488      2.30022351760014      0.71386716251537
  H   2.06305760817197      3.64977618294855      1.70307306141110
  H   0.42927219330279     -4.02549361920028     -0.87461921327824
  H   2.04412112240925     -4.27611846038657     -1.59215910655175
  H   0.78714434660455     -3.38459918214593     -2.49309515626153
  H   -2.59724903625265     -2.20362918494710      1.28774789436885
  H   -2.12399220067727     -3.90972422276191      1.44358214727999
  H   -3.36862990136134     -0.41848544359461      2.48660213045135
  H   -4.99637582412755     -0.53760719148164      3.20541287521907
  H   -4.58304905367401     -1.47901571001958      1.74261413394765
  H   -1.74193604648342      4.22319365546548     -3.08191923971393
  H   -1.76428994662143      4.74446069700058     -0.57121718392754
  H   -0.44600119276837      5.62020967458344     -1.35443663199107
  H   -0.09369222290772      4.13804951172970     -0.42363315504777
  H   -1.06164202903351      0.82371821092467     -3.64197445485664
  H   -1.49393317372094      2.34387018731211     -4.50357779725627
  H   2.18870592596323      0.18840734786479     -6.41675857915896
  H   3.33000413924776      0.28676223344726     -5.05442326341977
  H   2.69723063929893      1.78967670906190     -5.82484224290648
  O   -2.35931573974694      2.56588914952665      5.22896330845444
  H   -1.93390360337781      1.73366926536545      5.50687892675280
  H   -1.80183869363027      2.87485049986882      4.50104507588448
  O   0.62419250964028      5.96443835870967      2.10339332246110
  H   0.32198876711210      5.10180886029705      2.42938706317127
  H   0.41599597858252      6.56992308056022      2.82399848170445
  O   -0.98887685042265      0.21271543079994      6.17148902601130
  H   -1.36773603823417     -0.68660331879533      6.25451065371540
  H   -0.69831020718893      0.43064981680296      7.06512842791267
  O   -1.93249204082080     -2.45834960109083      6.40927162663664
  H   -2.11494869413186     -2.66382235757969      7.33435767046131
  H   -2.78044566467228     -2.60580704562441      5.95532015453904
  O   4.93252351418923     -1.52173189228289     -3.41289835299074
  H   4.41001783448448     -1.85171182606372     -2.65784248787095
  H   5.80880388315514     -1.91358879588843     -3.31067088168554
  O   2.93909381423805     -2.75049273139828     -5.22343246079581
  H   3.66163712730031     -2.33816965104835     -4.71957028463941
  H   2.16289268287341     -2.24238407855075     -4.95738635904831
  O   4.55285503528509      1.25036900431479     -2.52322851856384
  H   3.68233105821888      1.17923517061510     -2.10782029777770
  H   4.72160577489392      0.36141827875242     -2.88469345521324
  O   3.51902063864914      3.68542228421164     -3.77795700523975
  H   2.71907381891473      3.54378096075272     -3.25222320796560
  H   4.03560792140015      2.88917118432522     -3.56722261287307
