52
Coordinates from ORCA-job inp
  O   0.85282722706520      1.87217072347572     -2.05216990541937
  C   1.22685722448318      0.71894602719625     -1.46725888200654
  O   2.15918728270200      0.62445669927555     -0.70128139572698
  H   1.43836726533205      2.55368152310541     -1.68899269818316
  C   0.35744728901586     -0.42285260781218     -1.92273759145029
  H   0.55266727910442     -0.59018574105024     -2.98489192076261
  H   -0.69233287641072     -0.14979482786983     -1.82506087468363
  N   0.62823725690584     -1.58462262347499     -1.12151694982167
  H   1.48331723820619     -1.59851632211349     -0.57861733298013
  C   -0.39328268498613     -2.33718509185541     -0.64833616252497
  O   -1.54874254329915     -2.26554401813867     -1.05583401227116
  C   -0.01837273038170     -3.25310327325225      0.50464099445509
  H   -0.62278266736688     -4.15686069301602      0.38732812684414
  N   1.42096715673495     -3.49695489466333      0.54624483488405
  H   1.65310728546579     -4.00646581268339      1.39080195414459
  H   1.69606727754600     -4.08767498814967     -0.23016010173184
  C   -0.45917272964038     -2.55565649237089      1.80672850914193
  H   -0.19134271046577     -3.20702745864290      2.64324206046391
  H   -1.54732268758355     -2.48565602018180      1.79162025109124
  C   0.13976729507071     -1.20034102305987      1.98790256497482
  C   1.35134724695000     -0.90216582122267      2.57585016452095
  H   2.07200723965079     -1.56132728291210      3.03106351036897
  N   1.57574726783285      0.45130541070278      2.52532419873703
  H   2.42081723170864      0.90723797938776      2.82020572132087
  C   0.53183724267551      1.06211159125292      1.88319967787724
  C   0.32512727709176      2.40718938457367      1.57232351936246
  H   1.04342725870121      3.16778234827276      1.85109267313403
  C   -0.83718271356092      2.73253662950080      0.88779175191526
  H   -1.03172270535299      3.76475311533320      0.62932776198274
  C   -1.77275267299369      1.74144569410190      0.52864676156330
  H   -2.66697261990758      2.03207916786064     -0.00607598315393
  C   -1.56983268611963      0.40623780710603      0.84302314307854
  H   -2.28746268132177     -0.34667465746450      0.54419419314716
  C   -0.39791271069504      0.04524046530807      1.53177403078301
  O   2.36731314924207      3.93049748624875     -1.14500745052651
  H   1.76689110935436      4.59263357082516     -0.77958259379698
  H   2.88794427007172      3.61611010246461     -0.37627411480503
  O   3.68335003059471      2.49204517023249      0.89193032748512
  H   4.62810032850499      2.36961261973422      0.73576199383650
  H   3.26343382824787      1.73904902687505      0.44056723946551
  O   -2.12904819110134      2.13432995056679     -3.10953656743030
  H   -1.26894611577189      2.17866364317441     -2.67194149090160
  H   -2.51363047136933      1.29735846423325     -2.78965557821762
  O   -3.35917967175941     -0.37039749580322     -2.26067803028068
  H   -3.69818120185603     -0.78643437784958     -3.06279681429676
  H   -2.72083405468210     -1.01748792314456     -1.90900325450998
  O   -3.85676476220148     -3.51375923470728      0.04565855986608
  H   -3.01277189236004     -3.12512062743537     -0.25079540949086
  H   -3.71381095864420     -3.69625390236497      0.98105375602499
  O   0.92189051931974     -4.51737160265054     -2.44873355817759
  H   1.18021684614361     -3.64675599511783     -2.77482207804903
  H   1.23885495460627     -5.12360020938753     -3.12880952856557
