59
Coordinates from ORCA-job inp
  O   0.31073439913321     -1.25552185524824     -3.58547362869164
  C   -0.50160487888409     -0.66834384211728     -2.90250239270563
  O   -1.39577554268026     -1.31810724047981     -2.15945476791349
  H   -1.97041531613716     -0.65202530979045     -1.70057267191588
  C   -0.57849556617525      0.85651446896522     -2.83059619857443
  H   -1.54712532878350      1.17289173097468     -3.22159015155425
  H   0.21309462174601      1.26616599954242     -3.44716845211923
  N   -0.43457524880631      1.38213058173444     -1.48246641545636
  H   0.47804459270154      1.71057553071435     -1.18770068576458
  C   -1.42042556415956      1.26092507638474     -0.58317876793464
  O   -2.48550529554347      0.67443921449052     -0.83968906827997
  C   -1.17041491884258      1.80417973185610      0.80197077947465
  H   -2.02265536401782      2.42440511792250      1.08334199009061
  H   -0.26001545250209      2.39707897673343      0.87128151542708
  N   -1.03175609238522      0.65374494503782      1.66748106002448
  H   -1.40957504961379     -0.24387039898174      1.39188423636704
  C   -0.14668503046794      0.63501650511747      2.68627975865823
  O   0.45047453796305      1.62266911462454      3.10500776037714
  C   0.12343456614010     -0.75632325211445      3.23860551754315
  H   0.22193460352725     -0.64906246756763      4.32208722614738
  N   -0.91298541304496     -1.70179591682895      2.82936841260843
  H   -0.58999536466679     -2.65049847366755      2.97513165330931
  H   -1.73899530773604     -1.58799608838362      3.40552062664877
  C   1.48945459505171     -1.20258333624734      2.68700738398058
  H   1.68658458266860     -2.21281991992686      3.05577943842260
  H   2.24536457126907     -0.55070120808537      3.12612901326780
  C   1.60812455606368     -1.16725686973788      1.19695807556119
  C   1.34993457361028     -2.19640110506987      0.31234978788713
  H   0.98394462329586     -3.19111457194113      0.50787208983870
  N   1.64392460872692     -1.80494832029585     -0.96949322121197
  H   1.41065458784800     -2.31245334615226     -1.80978223276269
  C   2.07938460647396     -0.50754859765294     -0.95515013862273
  C   2.50660447503672      0.31093021343808     -2.00492562065297
  H   2.53403456714766     -0.05567201014573     -3.02145196306698
  C   2.86873468472672      1.61419438869588     -1.68895236727956
  H   3.20185452186655      2.27858839941324     -2.47536054676730
  C   2.82479449887758      2.08262072572860     -0.35753407728417
  H   3.11611458018281      3.10339697303328     -0.14839592211648
  C   2.43955457319229      1.25548211591819      0.68916118869650
  H   2.41072457351779      1.62765404565106      1.70430778929609
  C   2.05916460998062     -0.06771272590634      0.39988766918429
  O   -4.00227036883458     -1.25576985896612      0.82072829491516
  H   -3.65949722123426     -0.50145944135148      0.31604465367675
  H   -3.42970692068545     -1.99866726431989      0.54518032866376
  O   -2.29418403064555     -3.41438451457988     -0.09130037585120
  H   -2.80960446985483     -4.02448354109727     -0.63413489697473
  H   -1.68810406151328     -3.00129899744201     -0.72224063620497
  O   1.91637405938067     -0.06166653812984     -5.76226454372829
  H   1.35994209422057     -0.41499979822687     -5.05068050653385
  H   1.91153470132014      0.88958153707003     -5.60520261816893
  O   0.97824106763662      4.31858291607966      2.32898179415122
  H   1.89250341279156      4.29387124601658      2.02479728735987
  H   0.78737736009896      3.39497363534635      2.57496650133177
  O   -3.83221770934583     -0.54655567501196      3.56812642551496
  H   -3.42003040590495      0.32523539233060      3.57075551921352
  H   -3.86510958781764     -0.78591703374587      2.61924677207591
  O   -0.32456156608922     -4.20791088013359     -3.43257925965320
  H   0.44420477415784     -4.69025980016606     -3.75793795188894
  H   -0.09374797313288     -3.27753679424232     -3.57872282261955
