55
Coordinates from ORCA-job inp
  O   -2.31892266758086      1.15480715219967      0.82313427480880
  C   -1.03827279983828      1.76576841915089      0.54333697926055
  C   0.10011749635396      1.00671559574887      1.24253387449694
  N   1.32921698511887      1.33715526220101      0.78421352979809
  C   2.57907756475314      0.93992487306723      1.42971363981959
  C   3.44768827878445      0.09525888095904      0.51191907248322
  O   3.71407699129316      0.88868377118552     -0.65756746742484
  C   4.41133820533940      0.20597904528385     -1.70254002554710
  C   3.64857757390798     -0.99407920426614     -2.29533718269529
  N   2.25462831594522     -0.67030590160467     -2.56752325147125
  C   1.21849779847706     -1.22010969948450     -1.88800648766007
  C   -0.15632265979290     -0.67560860643496     -2.27277483660236
  O   -0.91843263122154     -0.54761401141182     -1.06966384935832
  C   -2.23938268856176     -0.08226279095991     -1.33463166099871
  C   -2.92345278704117      0.28753120760175     -0.02491987707735
  O   -0.11320247545838      0.24288074419801      2.19259012268685
  O   1.33960713145435     -2.12044507160203     -1.04388208226419
  O   -4.03067283806014     -0.12900030741521      0.27273820304013
  H   -1.10518265332567      2.76716655659114      0.99016183454778
  H   -0.86105240218332      1.88014381215329     -0.53315235454061
  H   1.40930828567648      1.92620322773237     -0.04151074188955
  H   2.32702764461196      0.36786009322725      2.33139065230783
  H   3.12496771817360      1.84691297796941      1.73307752474786
  H   2.91357762360686     -0.83215033653461      0.24870528977465
  H   4.39163769701228     -0.16937382446367      1.02384815647360
  H   5.40035781907710     -0.14880267052855     -1.35654203804103
  H   4.57095770207569      0.96790266350608     -2.47827688240813
  H   3.65363782437441     -1.85055070442510     -1.61092901519179
  H   4.15666772526534     -1.30159393682903     -3.22189748111497
  H   2.06384678859019      0.11777454074267     -3.18229208973997
  H   -0.63399255090839     -1.39481525486993     -2.96485792344565
  H   -0.07999236561792      0.29884434347081     -2.78854979600514
  H   -2.85257275282232     -0.85351051144145     -1.82637533473272
  H   -2.23335270336528      0.81763033977586     -1.98293751796084
  O   -0.23061883970285     -2.54134924942278      1.32959118512657
  H   0.03312336898264     -2.33276177906922      0.41372469372461
  H   -0.28925316725340     -1.66270501737684      1.73925996171859
  O   2.20040379267189      3.04465171079542     -1.62384405044834
  H   2.94894669662470      2.50715719468702     -1.30527907808188
  H   2.47243410226058      3.96215818214483     -1.49714510673866
  O   2.53300715535927     -3.43937503717933      1.44281292831754
  H   1.60780413621788     -3.17689780441602      1.60277131767342
  H   2.65080482593356     -3.19522825907698      0.51556967598124
  O   -2.34368786670805      0.06331421605292      4.02113345985218
  H   -1.70993446390068      0.18883537621413      3.29525873125495
  H   -3.20300874552722      0.32303464952588      3.64377558358387
  O   -4.91550466446936      0.79823587507787      2.88622716957576
  H   -5.59406368830669      0.18947660892830      3.20233736448331
  H   -4.72895689871456      0.49874473037734      1.97896912039320
  O   -5.48641164361423     -2.27099238688906     -1.15685854383519
  H   -5.00434489586010     -1.54088957180713     -0.73856931709543
  H   -5.62581195330568     -1.96621367224917     -2.06047652304403
  O   1.69851343317300      1.82294190801028     -4.12212844198260
  H   2.40254894264227      2.00836075076050     -4.75510697036107
  H   1.90827101532754      2.38509489327157     -3.35021006535813
