91
Coordinates from ORCA-job inp
  C   2.56514596190951      0.38235501144407      1.60253691470896
  N   0.55585193233904     -0.77346497740586      2.43251887867333
  O   -0.58979299629167      4.28319800426232      1.11249699839242
  N   0.19568201979154      1.42562300930485     -0.75868998695170
  O   -0.94285899423860      5.91203399935361     -0.43141899989103
  N   0.81019998122251      2.68976196532427     -0.56630099391932
  O   1.82443800854515      0.83908000416433     -2.27474998688121
  N   0.18487000518201     -1.37680098363181     -0.22457800670615
  O   -1.11827408120510     -6.03875302183339     -1.67251619217276
  O   2.04033693055625     -2.72803598499519     -0.15510212853307
  C   -1.13925600762840      3.26610300102658     -2.00617599595749
  O   0.64439893783443      1.49525701272533      2.55294992005634
  C   -2.05579698752086      2.36297000006475     -1.16714400449689
  C   -1.20919015168721      1.37978197036303     -0.31099599045782
  C   0.02463401717060      3.81309501956365     -1.15571300228406
  C   -0.54682901481535      4.79451998789281     -0.13128999811718
  C   0.82537497966611      0.54637100536262     -1.61060902272681
  C   0.31025601215731     -0.91341598053655     -1.59859801983944
  C   -0.96365300745213     -1.14914899837548     -2.46189600638691
  C   -1.69473297490559     -2.39841599696016     -2.03066094386431
  C   -2.97745301533615     -2.31281800352631     -1.47332002987846
  C   -3.62219298643525     -3.46826099557332     -1.01257096794817
  C   -2.99539802873461     -4.71159400972392     -1.08759007259176
  C   -1.70526693725013     -4.79617098024546     -1.63413185118648
  C   -1.06125305009496     -3.64790101370356     -2.10944811167464
  C   1.13743303667674     -2.10453702462606      0.41529408538224
  C   1.00609703210847     -2.08491598061819      1.95482207180447
  C   0.06118399104121     -3.20497300761059      2.47253197396847
  C   -1.37702700014801     -3.08150899868769      1.94677500727838
  C   0.63644900129709     -4.58825399992396      2.14223800376863
  C   -1.16059399967471      5.13265600001228      2.14917899806083
  C   1.18991608952784      0.42422598032436      2.23100419373944
  H   3.22265800114830     -0.33633800132676      2.11138600479768
  H   -0.34366200614912     -0.71446300317731      2.91035300416334
  H   0.87594500598863      2.80082901915370      0.45319300975108
  H   -0.46545400416071     -0.88910100933043      0.38510999912826
  H   -0.23008192026681     -5.96800498273400     -2.07033082597442
  H   -1.69742499760921      4.10583399917278     -2.43882600236166
  H   -0.70700899718915      2.70030100100757     -2.84425999896919
  H   -2.68878300119939      2.96750899770420     -0.50182600108445
  H   -2.73002400135611      1.80936700240701     -1.83531599982225
  H   -1.61910798396359      0.36739199668208     -0.38631600269829
  H   -1.20717583998718      1.66262801926596      0.75081299079888
  H   0.68824199573262      4.41274799847613     -1.79635900148775
  H   1.13278400062854     -1.49893202419288     -2.02600497258229
  H   -1.64532199772779     -0.29004600109522     -2.40450699970829
  H   -0.64108099717032     -1.21749600235453     -3.51085000216943
  H   -3.47379999873661     -1.34331799582874     -1.39766100004204
  H   -4.62148900000433     -3.39670800180134     -0.57990199881551
  H   -3.48260599206411     -5.61601399534079     -0.72107998481493
  H   -0.05013399109463     -3.72636999470564     -2.51799898117496
  H   2.01716000086361     -2.29196702183854      2.33553998711245
  H   0.04953100765342     -3.08636799884174      3.56942100224760
  H   -2.02555400026586     -3.79784300045560      2.46938199942126
  H   -1.42894199604859     -3.30525399408554      0.87218700503106
  H   -1.81191400108625     -2.08218399973103      2.10230900114716
  H   1.65319300133414     -4.71097299786179      2.54252800161803
  H   0.67588600182421     -4.74699099951151      1.05435900147842
  H   -0.00180700328614     -5.37159799926897      2.57433700073435
  H   -0.52266199931985      6.01193799756915      2.30485300081131
  H   -2.17151700232327      5.44978900168725      1.86390800048924
  H   3.00268401218998      1.38405499493718      1.65290601810914
  H   2.50653600151269      0.08297599918306      0.54617200521322
  H   -1.18601600499055      4.50808298621810      3.04600800170537
  O   3.03237108533854     -5.41815973440899     -0.63552631399835
  H   2.74013527023475     -4.52161830491911     -0.40141930139425
  H   3.96415022870015     -5.31111277004785     -0.86503263454930
  O   4.69021265959078     -2.79270156824293      1.25036574585989
  H   5.10869172363670     -1.98235410915320      0.93637515299344
  H   3.81286120795964     -2.77056816120336      0.83667652836224
  O   3.71959608163592      2.97869741629504     -1.09792398219421
  H   4.07761006505893      2.30382007135633     -1.68531452851641
  H   2.76949440607896      2.75432536087313     -1.05088313028125
  O   3.98663021251740     -1.11308040713295     -1.98087071685926
  H   3.48711216042414     -1.75721258917378     -1.46022843591416
  H   3.32691027953424     -0.42366310507348     -2.16693001312215
  O   2.18554143528160      3.91278749763657      3.02125186249772
  H   2.14789457325956      4.40070811805681      2.19036793669410
  H   1.66610889710270      3.10960458343909      2.84086829739175
  O   -0.60426324688565      6.98072428629638     -3.12663161775242
  H   -0.71848061298999      6.57155199664917     -2.25224328593708
  H   -0.44587683324705      6.23155627759954     -3.71208654803050
  O   -2.04918776880597      1.43606247611016      3.46327400192114
  H   -1.12140898607781      1.57112365417044      3.18617404639790
  H   -2.37618870630353      2.31666295375147      3.68220379187447
  O   -3.60677899237598      0.12973008066532      1.46086738607434
  H   -3.08153703358135      0.57070264600592      2.15679594765423
  H   -4.07093334674142     -0.57500247670234      1.92672005789314
  O   1.37844930863362     -5.97924568435824     -2.80683888877769
  H   2.02526566296528     -5.83464669634042     -2.08101763971589
  H   1.57751325307743     -6.86222959088887     -3.14183785137167
