58
Coordinates from ORCA-job inp
  O   -0.02598781832347      5.07602865243453     -0.77341818629259
  C   -0.24447781518235      4.24487703403815      0.07496043351916
  O   -1.45547764323923      4.08690646314218      0.62418458360590
  H   -1.41948766115679      3.34029238231010      1.26758646492525
  C   0.83394246568057      3.29815627846623      0.61770622206604
  C   2.18742398107615      3.59815111406225      0.01170408249023
  H   2.94240054722411      2.93849877614424      0.43495346115400
  H   2.15433160295641      3.46223977098428     -1.06720820188710
  H   2.46253201757197      4.63058199459748      0.20581476414461
  H   0.85639209853787      3.42310611813195      1.70371945998624
  N   0.48430370917005      1.90742074964965      0.34919124595709
  H   0.99122187848288      1.38411826989555     -0.36789410453339
  C   -0.44387778616454      1.25098012641576      1.05648752943155
  O   -1.13360786426273      1.78142747721654      1.94066767591262
  C   -0.59042804301137     -0.23572174003833      0.75535482533487
  H   -1.50597754438957     -0.53686773856424      1.25987081619022
  N   -0.79205678581822     -0.52913965807689     -0.65444791272313
  H   -1.64075767580188     -0.99834377493464     -0.95015602370754
  C   0.14889736087167     -0.49612893414066     -1.61084208807156
  O   1.27936903310678     -0.01111533300619     -1.48182672193531
  C   -0.27119757283325     -1.14697041262372     -2.91796169253370
  H   0.27111217897797     -2.09214849158563     -2.95708692379329
  H   0.11391203448024     -0.52148985160503     -3.72419782653840
  N   -1.70536770229901     -1.41293804563689     -2.97499128799704
  H   -2.19583745795640     -0.64153162868323     -3.40745238102936
  H   -1.89692760977475     -2.23370701373839     -3.53104215022561
  C   0.58524339385717     -1.02777288511886      1.36040934386584
  H   1.52226722122776     -0.65085924409197      0.95504982738600
  H   0.57904247614386     -0.84206053011093      2.43605973764781
  C   0.44196913505860     -2.49133697947232      1.06405543571468
  C   -0.48609715375376     -3.27129565868788      1.76044890075071
  H   -1.06276783862480     -2.82515543632465      2.56251488195620
  C   -0.66801773876503     -4.61472326803056      1.44217801834757
  H   -1.38504769710345     -5.20714389423290      1.99410568674923
  C   0.07855219678867     -5.19641479440924      0.41829632083324
  H   -0.05905779048446     -6.24038545495402      0.17255718384918
  C   1.01025205033260     -4.42950873157613     -0.27839486857418
  H   1.60205197231536     -4.87838916682982     -1.06497162942768
  C   1.18855291949289     -3.08460129916468      0.04221630987479
  H   1.91460179138820     -2.48699084280232     -0.49548210296468
  O   -3.81370405218728      0.71277954927787      2.05914246624566
  H   -2.91439143993142      1.07893333202080      2.14609488768083
  H   -3.98859098851951      0.30277775965058      2.91507718197691
  O   0.16499985073501      3.48755988995714     -3.38090591860476
  H   0.34621199094348      4.08591075920711     -2.64226787040496
  H   0.94780349595303      2.89847811502672     -3.42913920023953
  O   2.37458410766528      1.72774066075623     -3.43576365918657
  H   2.50233887198015      1.32918127892885     -4.30548898008229
  H   2.04797519298136      0.99733293388305     -2.87648564542885
  O   4.04762634250697     -0.15392894023839     -0.50280862760807
  H   4.60982500021922     -0.45553986491767     -1.22563559872808
  H   3.15235933925713     -0.20661295841726     -0.86803445659801
  O   -2.02732249786297      1.82124380027215     -2.77382926361595
  H   -1.25154280919397      2.40180221944006     -2.92072593975770
  H   -1.99133694593520      1.61121820304144     -1.83347535563566
  O   -3.67815744996407     -1.31277887869252      0.03438721293042
  H   -3.80167764340448     -0.60698569217785      0.69894972664202
  H   -4.26950850677441     -1.06916668928600     -0.68708448944114
