97
Coordinates from ORCA-job inp
  C   -2.18787039759826     -0.55382500451017     -2.20645036834601
  C   -0.79434118932141     -0.77473895119232     -2.81628885867105
  C   -2.03216086184415     -1.52087630452087      0.12702774011417
  C   -3.89568369076502      2.38775137296478      1.37786073543362
  C   -0.87573494774190      1.13162067656224      4.43110838183200
  C   2.59625200944453      1.22187201942815      3.97522525522188
  C   1.18824213997489      1.57684903254348     -1.00187069076468
  C   4.01584693565729      1.63226480250164     -3.17282253337534
  C   -1.11680535875765      1.26571398114132     -4.22927981612276
  C   -1.75805366173374      1.13521166657963      1.20331009224807
  C   -1.95401061709823      0.92947782500316     -0.30793922005979
  C   -2.60829972964752     -0.48586912652014      3.62535202098015
  C   -3.48551869246029      0.57591898863893      2.94834246449302
  C   1.19081622095055     -0.86664377921640      3.94661097557821
  C   -0.28762723349307     -1.18495918709529      3.69161979653078
  C   2.50271177035624      1.31129348323689      1.09752425948068
  C   1.68373129607428      0.25707585061744      1.87181139611580
  C   2.88337102014901     -0.39444210129295     -2.29110262264806
  C   3.14839280916621      0.05971115643093     -0.84747177118070
  C   0.89303449490626     -0.20702666437482     -4.48826246722600
  C   1.98197793004210      0.85914006493530     -4.27036833544724
  H   -2.73375810835732      0.28471429513820     -2.64484069607032
  H   -2.86665111610651     -1.50060206690646      0.84149956219525
  H   -2.75970242580734     -1.47204784521149     -2.38959073132458
  H   -1.07595235135807     -1.57303637322313      0.66305359110943
  H   -2.12895893693555     -2.41907551487145     -0.48839652096696
  H   -3.26087790153682      3.19402709301914      0.99105066970150
  H   -1.19836044812242      0.31053149569382      1.64469855825658
  H   -4.53701487580401      2.76287196099010      2.18140998615733
  H   -4.52995077744761      2.01604076998140      0.55943499447757
  H   -3.09925230498714     -0.67914668195038      4.59076046267974
  H   -1.78777393756039      1.54481902752327      4.87755324786809
  H   -2.65819830491380     -1.41985325089659      3.04971491023573
  H   -0.49858506514379      1.84034979824138      3.68063386014295
  H   -0.13424437010913      1.02942997509133      5.23224298417576
  H   1.34195129368408     -0.70097773083324      5.02207122029801
  H   2.64015617147341      2.19605670753127      3.47718513474032
  H   1.74139021735454     -1.77454897447934      3.66469567353730
  H   3.61589125383685      0.82184730128966      4.08584616027973
  H   2.17069237993255      1.38192926092921      4.97316423885466
  H   2.14550028889988      2.32574165781822      1.32009452283475
  H   1.43272519967630      2.15834222343389     -1.89870534319462
  H   3.55616735921899      1.25165087727629      1.39960346073975
  H   0.65513831205164      2.23710571317337     -0.31290728254280
  H   0.51955711718782      0.75142540863483     -1.26652897038011
  H   3.66920222251677     -1.12863952938668     -2.51949583878012
  H   4.90294942496144      1.09580169787753     -2.81242392492805
  H   1.91310401343120     -0.91350163027142     -2.30185476106084
  H   3.77807395223276      2.44208076422373     -2.46583993554081
  H   4.22217525347139      2.06972497692556     -4.15458655354591
  H   0.68191034806166     -0.19409558511177     -5.56629782585755
  H   -1.91490078697764      0.97027380783140     -4.92597071760072
  H   1.21885601190771     -1.21366629331483     -4.20966466122380
  H   -0.42550779326591      1.93590181202272     -4.75097054870364
  H   -1.53567030647162      1.80201095879231     -3.37014658146956
  N   -2.08513019705232     -0.34652020078232     -0.75739685645956
  N   -3.02988621352551      1.32226107227417      1.90236499394388
  N   -1.19556226108889     -0.17224336208749      3.83974254176223
  N   1.73390527874686      0.29655394677798      3.23165335324303
  N   2.39405287042086      1.07452819371845     -0.33348683027395
  N   2.90376343194997      0.68149136466780     -3.28203753512956
  N   -0.35413964072470      0.09240679389132     -3.76892620078266
  O   -0.11539870829783     -1.74132017740320     -2.41757499136110
  O   -1.97193845198803      1.91544658883393     -1.06847976607592
  O   -4.64031437847108      0.72352936469310      3.39094818608704
  O   -0.62756928930291     -2.34251749831985      3.39911123898138
  O   1.01350388114632     -0.59470700347546      1.26778592599726
  O   4.02284230316471     -0.51919012981981     -0.17972754735012
  O   2.01370216512012      1.85304140052816     -5.02101333456773
  H   -1.15688224892703      2.05140036898140      1.30140595235521
  O   -4.34396780924730      2.76542964082188     -2.47923991805007
  H   -3.56213024562586      2.46778345670752     -1.98368369886160
  H   -5.06449203268843      2.24770521221539     -2.10206673154522
  O   -7.11382780178436      1.18061835792801      2.04294678582430
  H   -7.52026260148120      0.30695951160357      2.04437177186246
  H   -6.24618803109447      1.03636168658941      2.46292600835528
  O   1.58561147555990      4.43730942351405     -3.75625222067888
  H   0.70769304642213      4.31035985580048     -3.37814522992170
  H   1.77867114543300      3.58359507264533     -4.17857407842375
  O   1.63520316099799     -3.34079541687664      1.38658984491877
  H   1.07768216691199     -3.86872850804117      1.97156631950893
  H   1.23735223545481     -2.45000165994632      1.40229342359487
  O   4.14514383235015     -1.93208317176412      2.38148214089783
  H   3.42201467521421     -2.55216998924195      2.19917185929285
  H   4.12982928661731     -1.34784965611337      1.60610386972502
  O   3.56704213572998     -3.46792898552439     -0.73777409737717
  H   3.89984830498517     -2.56326364733170     -0.62005413124505
  H   2.90290388023169     -3.55709601868702     -0.03074720827187
  O   -2.09598170997307     -4.27333164828541      1.84444851953011
  H   -1.65215138239181     -3.60357180424271      2.38945596247795
  H   -2.07804703814826     -5.06621029450987      2.39224205817420
  O   1.88378235005238     -3.82476349915544     -3.03920134383510
  H   2.47680812501733     -3.66345252921290     -2.28060253768755
  H   1.16237160627784     -3.19335315080588     -2.90046987542415
  O   0.68482352067381      2.12668133873753     -7.54738832613596
  H   1.13823516926030      1.97444066296626     -6.69891719246024
  H   0.91694476060564      1.35525685814050     -8.07634434185419
