125
Coordinates from ORCA-job inp
  C   2.15655262796789      4.36216040319411     -0.37290578780630
  N   1.00621130335627      4.00518035492885     -1.24539457841870
  N   -0.23023292800287      4.41525656415861     -0.69079610007675
  C   -0.35718488363751      5.82647808704993     -0.29930307111697
  C   0.70706303204686      6.14253410672690      0.75351073583170
  C   2.09626354517812      5.78293964581493      0.21248580547601
  C   -1.22023252683051      3.50441357796732     -0.46293610268511
  O   -2.32340183888016      3.83634565185858     -0.01069582899677
  C   2.27447100130865      3.26301323755606      0.69252490067793
  O   1.98967897889657      3.41871053272162      1.86596423220199
  C   -0.91516023165068      2.02957198703907     -0.83803408424900
  C   -1.07389342565879      1.83287951203974     -2.36210967051586
  C   -0.36805548450241      0.62989266981292     -2.95304451828883
  C   -0.80200061392669     -0.68547009880729     -2.70529155944179
  C   -0.18694599372435     -1.76473056592725     -3.36164061369540
  C   0.88028687349804     -1.54031701096725     -4.24735190235098
  C   1.32551115996892     -0.23812470593153     -4.47116316931612
  C   0.70838573681856      0.84218474925700     -3.82968836628502
  O   -0.59522410327971     -3.06455689918773     -3.20504768321422
  N   -1.84670421766872      1.17719162259624     -0.11594157327899
  C   -1.83237998251393      1.12196480105866      1.24295274217324
  O   -0.89659321644359      1.56642891231931      1.91760692110705
  C   -3.02555249538594      0.34944249562841      1.86255039691078
  C   -3.57814109433261      0.97130374628098      3.16079143203836
  C   -2.62509153351641      0.89724923926484      4.36435168802508
  N   -2.55437729074970     -1.02687538538366      2.05756359259428
  C   -2.44118788604143     -1.89170690585891      1.02838462437099
  O   -3.04924109807345     -1.67567696791801     -0.05098435774038
  C   -1.53801086592417     -3.11906549966474      1.23185309788620
  C   -0.38078212305991     -2.83201036984597      2.22233553717595
  C   0.51181119796077     -1.63533540846927      1.86544391109191
  C   1.86861297205462     -1.65753769738937      2.54743432960805
  O   2.37951171876536     -2.70435869657655      2.94640163458501
  C   -0.97792832157924     -3.64172075191577     -0.12444820231399
  O   -2.00718229191919     -3.69850328812202     -1.15181260173635
  C   -0.30326529725832     -5.03054875351724      0.01864424282047
  C   -1.25077896154191     -6.18496095424502     -0.32104593570035
  C   1.04084520746292     -5.14184426735274     -0.77069470377684
  O   0.85809503938598     -5.21203037619801     -2.19093695987259
  C   1.99648832299517     -4.06299909759335     -0.32347257437162
  C   2.29714551466639     -2.96801484346477     -1.04874330895968
  C   3.11415114436842     -1.84964721643222     -0.61309365925457
  C   3.16571025693258     -0.69053167231037     -1.30141971592992
  C   4.04312219601963      0.48229438454986     -0.99820306862085
  C   3.33928648899733      1.83673599005190     -1.01655584538169
  O   2.70040563629819      2.03451540711881      0.28733885248712
  H   2.57141706496237      1.89226633150280     -1.80367626217247
  C   2.55225613456152     -0.32574513003110      2.68264087626115
  C   -4.01264123473665      2.41759569674301      2.87938983349978
  H   4.08164961068440      2.63010467028145     -1.17275787293388
  H   4.81978953272528      0.53779245626267     -1.78367510498794
  H   4.57566079273745      0.36047065650784     -0.04237243629905
  H   2.55379786185736     -0.59885435762567     -2.20617142099308
  H   3.69255275319025     -1.96491549827610      0.31093415081662
  H   1.87247063729504     -2.87142214738009     -2.05343398330707
  H   2.37394469080102     -4.15999706673615      0.70055385648313
  H   1.47116022310251     -6.12088408806766     -0.49914353366375
  H   0.42624567567266     -4.38794646818876     -2.52378588687813
  H   -0.01087866315068     -5.14464130943738      1.07338250955075
  H   -0.77642168551792     -7.14431179094662     -0.06796675285467
  H   -1.49697490337237     -6.18784369518866     -1.38970739434430
  H   -2.18947542489259     -6.10357345712733      0.24517432948564
  H   -0.22185579596571     -2.91026390475909     -0.46034715213411
  H   -2.60925609308807     -2.91791245872394     -0.92196342136156
  H   -2.17955833445581     -3.90956372575658      1.65977658156532
  H   -0.78281913494492     -2.70784047572605      3.24005638125320
  H   0.25442660108372     -3.72382926140222      2.29342428609370
  H   0.75075525076887     -1.62235737701613      0.78617680951049
  H   0.04243705759501     -0.66028848432313      2.05880455861480
  H   2.46131417054325      0.26633423787597      1.76094712060060
  H   3.60454484471189     -0.45063960087187      2.96469633485481
  H   2.03088581692556      0.25500463376133      3.46207276336368
  H   -2.01001086891126     -1.20772030988024      2.89713752741967
  H   -3.84455201766949      0.30578542776691      1.13199425639396
  H   -4.47776908354000      0.38022482991684      3.40307717710761
  H   -4.72862020124457      2.46505345210544      2.04508934486864
  H   -3.14718791984451      3.04176807767805      2.61263918656765
  H   -4.49341083721107      2.85115726740313      3.76774624785741
  H   -3.11950354249609      1.32302492015551      5.24970662967888
  H   -1.70151181969060      1.45480099484573      4.16808139521183
  H   -2.35485164995853     -0.13860210520749      4.62508786498912
  H   -2.70359517662509      0.90299053893997     -0.58961082405938
  H   0.10829094755423      1.78304969034888     -0.52831196654206
  H   -2.15182597422507      1.79263617969478     -2.59272796779227
  H   -0.68947312915364      2.73157519910960     -2.85971635373378
  H   -1.63941132793267     -0.87215930483052     -2.02954964230166
  H   -1.27755376093568     -3.19880897102982     -2.45227183820587
  H   1.34474088197969     -2.39264244649866     -4.74509777336530
  H   2.15949749372023     -0.06299329191609     -5.15287161197999
  H   1.04991062169930      1.86026872193890     -4.02505255830491
  H   1.11296627094600      4.47745282095167     -2.14858495556448
  H   -0.21977932333384      6.44720230649696     -1.20119890394546
  H   -1.37349202253771      5.97774270921341      0.07883334408846
  H   0.66484197244966      7.21059996236966      1.01248888121659
  H   0.49318774456665      5.56257672556691      1.66288842255404
  H   2.35882463575675      6.47972682947468     -0.60033166687136
  H   2.86413399917830      5.88699149605758      0.99162666845805
  H   3.03645353728358      4.29593048745831     -1.02574900342196
  O   0.04056903774454     -5.44527781911091     -5.08199936971302
  H   0.38336041063905     -5.87054323370420     -4.28505163053183
  H   -0.30565879042097     -4.60610344773432     -4.74869671455321
  O   2.00761448915663     -5.61405964529936      3.27949483352821
  H   2.09528651420888     -4.65711905964181      3.14530608942188
  H   2.56592660739773     -5.99434658078573      2.59132093220930
  O   0.66429053181097      2.38900647324155      4.18036431976364
  H   1.41856054162024      2.71655340176750      3.66723454694229
  H   0.13650583726225      1.94906144789079      3.49200649946514
  O   -4.90343959894645      2.89044325285956     -0.87946036027958
  H   -4.80392822492356      1.97091176249891     -1.17533892769594
  H   -4.01771019479562      3.13037508380711     -0.55531730013836
  O   -1.02190807571659      4.74130072220753      4.13918304621660
  H   -1.36291655597691      4.73840305144319      3.23722929496615
  H   -0.44654589254622      3.95271400527782      4.17197257233218
  O   -4.57981889335207      0.12437423649846     -1.77774366053263
  H   -4.27424720505622     -0.59546911179303     -1.20347197414498
  H   -4.11992193326743     -0.02317900762185     -2.61376722062620
  O   0.78193576200305      5.23212662508570     -4.01829552787069
  H   0.39694008539560      4.50594016761510     -4.52480714245105
  H   0.05158641490812      5.85589422952860     -3.92068060274488
  O   5.21255679333282     -3.26257596109185      2.74576570407931
  H   5.54176097417458     -2.70816892556498      2.02911701629429
  H   4.29159272928645     -2.97217526422650      2.85911310857223
  O   -4.42979492318221     -5.30678179042741     -1.65963361252743
  H   -3.56058947806984     -4.95260631072602     -1.41346122807993
  H   -4.47570247205793     -6.14927523993910     -1.19376663727492
