116
Coordinates from ORCA-job inp
  N   -1.19447955830000      0.32677506650000      4.45648000740000
  N   -0.00021599370000      0.69182145360000      3.79112697320000
  N   -1.17545186050000     -0.48009331760000      1.55592059570000
  N   -1.03130787680000     -0.43508539020000     -1.95108598160000
  C   -0.07634238510000      2.97071350690000      4.90970813310000
  C   -0.49589153750000      2.04422566840000      6.06480422300000
  C   -1.61961291010000      1.09464619410000      5.65472359570000
  C   0.01420050460000      2.15072217080000      3.58015709600000
  C   -2.00163806680000     -0.62991614510000      3.92276306340000
  C   -1.52678942060000     -1.36616106120000      2.65690561050000
  C   -0.37634545110000     -2.35871019960000      2.98575431220000
  C   0.13393899110000     -3.03786385940000      1.73840289810000
  C   1.28645196040000     -2.55112169150000      1.10408850020000
  C   1.75021810780000     -3.14502005050000     -0.07742751960000
  C   1.05360518680000     -4.21850086010000     -0.64803058110000
  C   -0.10105898230000     -4.69272486350000     -0.02052384820000
  C   -0.56355802990000     -4.11052232750000      1.16364064290000
  C   -1.81230298830000     -0.51534150280000      0.35418435500000
  C   -1.20294415740000      0.38388840180000     -0.74775025940000
  C   -2.03102556350000      1.67934978540000     -0.93372404050000
  C   -1.93850637400000      2.53341910780000      0.33916072100000
  C   -1.54111771900000      2.47206659670000     -2.14887772680000
  C   -1.98552696860000     -0.81060143540000     -2.84831361610000
  C   -1.60353671190000     -1.94740400580000     -3.81135185410000
  C   -1.81877468750000     -3.30221029660000     -3.11239548840000
  C   -0.22498296820000     -1.81482064430000     -4.49753710380000
  C   0.99224349370000     -2.25586107480000     -3.64914780740000
  C   2.23209275320000     -1.33732302250000     -3.72183699850000
  C   1.26887086240000      2.48423740800000      2.79792518680000
  C   2.30591704480000      4.15776635000000      1.40413454650000
  C   2.17372845980000      3.76752378200000     -0.04320214890000
  C   2.40454613360000      2.44436237480000     -0.45152789250000
  C   2.28691254690000      2.06361428970000     -1.80081603420000
  C   1.97933408180000      3.06272869380000     -2.74993225180000
  C   1.74908800790000      4.37861733250000     -2.35199181300000
  C   1.83250789850000      4.73304827330000     -1.00063406560000
  C   2.50021022280000      0.66037772430000     -2.18997136100000
  C   1.96836428310000      0.07191130400000     -3.27804548370000
  C   0.73751732260000     -2.42706493610000     -6.62030951390000
  O   -3.06934204570000     -0.94227732480000      4.47660790680000
  O   2.88391197930000     -2.71002412580000     -0.72567342940000
  O   -2.81408667470000     -1.20512769520000      0.13335332610000
  O   -3.11562814050000     -0.30459066470000     -2.90154250210000
  O   2.25822065020000      1.76690995770000      2.75539926110000
  O   -0.34633625450000     -2.60593561350000     -5.70195444390000
  O   1.14433927650000      3.67738571380000      2.18567294850000
  H   0.80539971490000      0.40832676660000      4.35923021770000
  H   -0.33604825570000      0.07900794990000      1.69643859860000
  H   -0.13964657790000     -0.92061219370000     -1.99838820100000
  H   0.89048530530000      3.43761115100000      5.14390087540000
  H   -0.80696280230000      3.77953103630000      4.77543767880000
  H   -0.83329419930000      2.64147212820000      6.92217245250000
  H   0.36886436440000      1.45861901220000      6.41250370750000
  H   -1.86184368270000      0.38464247010000      6.45730235810000
  H   -2.53809360600000      1.65061899060000      5.40806063600000
  H   -0.85527789680000      2.38061875170000      2.94981613530000
  H   -2.39795112190000     -1.93768210100000      2.31535832400000
  H   -0.76646280680000     -3.09606224800000      3.70270228690000
  H   0.44335575600000     -1.81815480580000      3.47708078140000
  H   1.83989829760000     -1.71691164980000      1.54532288240000
  H   1.42683394450000     -4.67260027630000     -1.56631190980000
  H   -0.64373272080000     -5.52911469340000     -0.46402729250000
  H   -1.46748662740000     -4.48868223140000      1.64491148240000
  H   -0.18091767320000      0.68762504430000     -0.46145605770000
  H   -3.07488134510000      1.37955900250000     -1.09799563950000
  H   -2.53155180670000      3.45167636740000      0.22646199710000
  H   -0.89460869230000      2.83431908550000      0.53122596300000
  H   -2.31764103100000      1.99983971290000      1.22309027140000
  H   -0.47131434030000      2.70538898550000     -2.05633361470000
  H   -2.08722515710000      3.42387520470000     -2.22332356450000
  H   -1.69363450170000      1.91532441050000     -3.08212071510000
  H   -2.33756502870000     -1.85583856780000     -4.62464876220000
  H   -1.16097036210000     -3.42136804290000     -2.24065315550000
  H   -2.85532507000000     -3.38848910140000     -2.75947496500000
  H   -1.61889701020000     -4.12347508870000     -3.81447593100000
  H   -0.10293168210000     -0.75812713390000     -4.80583641830000
  H   1.26994286230000     -3.27278706240000     -3.96559336840000
  H   0.71643952500000     -2.37784453090000     -2.59078051940000
  H   2.59711261180000     -1.30714217600000     -4.76234225630000
  H   3.02632896310000     -1.78244038520000     -3.10629062730000
  H   3.21929474120000      3.75207288990000      1.85716209860000
  H   2.27789394800000      5.24477475640000      1.53119098570000
  H   2.67975090240000      1.69790303280000      0.29690472320000
  H   1.92787128770000      2.80502548360000     -3.80873876470000
  H   1.50765383530000      5.13634043220000     -3.09907167280000
  H   1.65390091870000      5.76506649030000     -0.69202974500000
  H   3.13818185040000      0.06734768780000     -1.52493939040000
  H   1.29131495980000      0.65982295650000     -3.90672601640000
  H   1.67776101600000     -2.87050130520000     -6.24833742590000
  H   0.45337265480000     -2.93915956990000     -7.54824061390000
  H   0.90818070330000     -1.35548610160000     -6.83356261730000
  H   3.32828712890000     -2.03112950010000     -0.18459248570000
  O   4.30300182850000     -0.91919064530000      0.85877588840000
  H   5.22251656090000     -1.18005742550000      0.78521481360000
  H   4.09686871230000     -0.87565251350000      1.80959055890000
  O   3.72349918090000     -0.41372823490000      3.53891785960000
  H   4.48747259170000     -0.01706881180000      3.96393124400000
  H   3.16084582510000      0.32992164220000      3.25338132940000
  O   1.86950898350000     -0.56737581820000      5.61375785280000
  H   2.57498586300000     -0.79272291440000      4.98589522790000
  H   1.56975186290000     -1.38483152280000      6.01514748300000
  O   -3.96305762650000     -3.45275219130000      3.41664185790000
  H   -4.63754034130000     -3.29021893230000      2.75377583330000
  H   -3.81613095300000     -2.60972350790000      3.87029134260000
  O   -5.54438945120000      0.97846479060000     -1.99394004240000
  H   -4.69740602600000      0.76080743350000     -2.39896212430000
  H   -5.87185108920000      0.13349310450000     -1.66257407120000
  O   -5.07272249310000     -1.88829226100000     -1.53686708160000
  H   -4.60114950140000     -1.53982067560000     -2.30179155520000
  H   -4.45392890180000     -1.77372776860000     -0.80495369200000
  O   -2.81035099150000      1.26929348350000     -5.24051965880000
  H   -3.58559712610000      1.76864016700000     -5.50329861970000
  H   -3.09628849800000      0.70338776200000     -4.51042384370000
  O   -3.54694285170000     -1.22562126160000      7.20744895090000
  H   -3.49300733550000     -1.12868016330000      6.24374719230000
  H   -4.23762719730000     -1.87130194620000      7.36552909530000
