55
Coordinates from ORCA-job inp
  O   -2.05446182025943     -0.13672196073726     -2.32126916005061
  C   -2.62052994662833     -0.06113065908258     -1.25703757070463
  O   -3.84115174376780      0.50285381923479     -1.10344161625843
  H   -4.11054082347297      0.78158607532199     -1.99185797985293
  C   -2.08003721435645     -0.55490901703468      0.06282534522324
  H   -2.82268169640532     -1.22761345588851      0.49849797466107
  N   -0.85953375213918     -1.26642900228182     -0.20782291600771
  H   -0.44647120713973     -1.20058468734833     -1.13602151793756
  C   -0.18333173975603     -1.89800995563723      0.77671779739595
  O   -0.59533011440698     -2.00491807103984      1.92993171854316
  C   1.16534720717628     -2.45999070241722      0.33860356436610
  H   1.02083884913083     -3.15044237616873     -0.49267444993692
  H   1.58930939015393     -2.99009011601667      1.18549883935430
  N   2.08064206092490     -1.42523038403734     -0.09292524357648
  H   2.70387594557776     -0.95863168110028      0.55020259994186
  C   2.01369816352172     -0.89791166190860     -1.33108765801952
  O   1.22073886141284     -1.27701218694501     -2.19380240289350
  C   2.97493885301634      0.24450059048617     -1.59121445278703
  H   2.35873872651732      1.14386084891502     -1.60099387959259
  H   3.36523876078101      0.10809266334997     -2.60107600660678
  N   3.98976869006489      0.37886847809890     -0.54750286875372
  H   4.30729868352962      1.33692777224780     -0.49344153805401
  H   4.80106868830212     -0.18398893959932     -0.76928950563792
  C   -1.88850896432868      0.61812839080686      1.05424617119751
  H   -2.81695035195554      1.18780844916139      1.08455546810286
  H   -1.72323646551787      0.17719992481366      2.03451863044781
  C   -0.72671967883714      1.49365377625949      0.68888036488841
  C   -0.82859130157992      2.45586568476596     -0.32158839504250
  H   -1.77063114895291      2.59045177166886     -0.83864682348072
  C   0.25860875122404      3.26244969046158     -0.65023872841593
  H   0.16032878800585      4.00801874008217     -1.42770002658804
  C   1.46553876316927      3.12044149269387      0.03434945775508
  H   2.30245874339804      3.76345433497526     -0.20548292813481
  C   1.58233872259757      2.15966975992446      1.03778819126853
  H   2.51409873367457      2.04270335807095      1.57417672123028
  C   0.49424863906199      1.34866629384429      1.35471877164297
  H   0.57744881419385      0.60605663827423      2.13903968200647
  O   -4.64037890538976      1.26965102709287     -3.58981661902427
  H   -3.86672110861953      1.25573996293436     -4.16856118918170
  H   -4.93537185824391      2.18920553845234     -3.61006508879428
  O   0.34280254413064      0.87222046560576     -3.88783297668505
  H   -0.56319106245541      0.91359468044585     -3.55717919264711
  H   0.71350338279227      0.12080290384322     -3.38897192913921
  O   -1.20525869938273     -0.75223441419119      4.59590443297027
  H   -1.37826749935381     -1.19636345078797      3.75349985520066
  H   -1.93031939548342     -1.03616052676649      5.16533959355835
  O   1.23656594525428     -2.37508413686988      4.07568211738671
  H   0.72819371969391     -1.81165217126810      4.67879509438614
  H   0.64180301250505     -2.42440639027853      3.30179721453258
  O   3.24104788900232     -0.89986914173036      2.72213269876312
  H   2.59276780694234     -1.41154152140403      3.24856508949786
  H   4.05971878945964     -1.40327661440376      2.79832196526169
  O   4.92912320377640     -2.49916975963646     -1.75147663717826
  H   4.41900383524585     -2.59710577937231     -2.56445033104942
  H   4.31362020393307     -2.78112243901708     -1.06357845143698
