89
Coordinates from ORCA-job inp
  O   3.99302432327496     -1.02259948356815      0.27605203540052
  O   -2.36063779870623     -0.66412890508505      0.24695243753334
  O   -3.02208949085927      1.38003590858832      0.92322338988261
  O   0.64784802222073      0.25652886592556     -1.70789957309114
  O   2.56728125686019      1.41187984780008     -2.13066479037376
  O   -1.57385419312906     -1.01556746708171      3.17605817272884
  O   -3.28850172347896     -0.95414920770738      4.66307396062411
  O   0.71180491082571      3.95297370895938     -2.42394459423596
  O   -0.42827314080593      4.73673940323862     -0.70901819817977
  C   2.60047746875344     -2.51235839144878      1.45467535973644
  C   1.57994720753434     -3.68948029510113      1.50806553240028
  C   0.40205508370851     -3.35686667185589      2.37844237306087
  C   -0.80936706772457     -2.93280505541757      1.96441867040188
  C   -1.19163846563440     -2.80294115666659      0.50966453364262
  C   -1.11175679553535     -1.38320175512873     -0.07155432152276
  C   0.03949181646560     -0.48650459739722      0.45004364087312
  C   1.22619628397659     -0.35576365914557     -0.50342589961498
  C   1.94415861354539     -1.64670180156293     -0.90798962792316
  C   3.07326761315928     -2.12447962176462      0.04203488694546
  C   -0.64618096784657      0.82164005863364      0.75270860729787
  C   -2.11217529244049      0.60486042286569      0.67147123855303
  C   -0.11701433932393      2.01342990072430      1.04619827440671
  C   3.82197356748113     -3.28731830285881     -0.62119842892199
  C   -1.80700736745532     -2.46481681379333      2.98676690835537
  C   -2.38853394925454     -0.38508825920670      4.05798557298206
  C   -2.05489365023762      1.07810885830530      4.16766515981343
  C   1.41253113805367      1.12129011466823     -2.41606668224931
  C   0.63284644313444      1.72534069256137     -3.53425781121554
  C   -0.15350474108844      1.02347956537715     -4.37401450342324
  C   -0.38523432987094     -0.45097642894793     -4.41900122182948
  C   0.82255858428792      3.20950496343038     -3.68843752148600
  C   -0.44875263798907      4.03556648318871     -1.71068439238188
  C   -1.65604953826240      3.25658922427090     -2.15875041174026
  H   4.33457043833532     -0.72953416950132     -0.59012055522982
  H   2.17913704933509     -1.61650830311074      1.93299011811939
  H   3.49787023707684     -2.76585703390538      2.03772270078176
  H   1.24454189442940     -3.94099510441144      0.49260082353145
  H   2.08340381570571     -4.58793320604296      1.89250486697078
  H   0.58456366250787     -3.39541721726662      3.45845766351773
  H   -2.22032322876437     -3.16208136857269      0.34989988747628
  H   -0.54905042780106     -3.44076136447878     -0.11169727047197
  H   -1.08852776583885     -1.44337072738005     -1.16874547881771
  H   0.40450390127322     -0.90595429130422      1.39760971551968
  H   1.96477946110812      0.34272472378313     -0.08461658515199
  H   2.42004985874348     -1.45187119511796     -1.88173119127942
  H   1.22347668672538     -2.45678369002494     -1.08625113745962
  H   0.96070366882324      2.17481151839333      1.09359344498163
  H   -0.76584158033780      2.86925875561230      1.23387267235647
  H   4.64349345797640     -3.62012720931378      0.02868193889411
  H   4.24293755681168     -2.97097926387887     -1.58734189331850
  H   3.15439758582511     -4.14054288175659     -0.80745472455381
  H   -2.84612509892206     -2.60429520050270      2.65741253316900
  H   -1.66905908259763     -2.95742052758529      3.95882318412171
  H   -2.37771702625257      1.45640243930086      5.14349286529265
  H   -2.60075325896183      1.61646101777892      3.37813168444099
  H   -0.98424740399245      1.25442476450272      4.01417939469281
  H   -0.67843999432552      1.60041267616208     -5.14381061270376
  H   -1.43066774743582     -0.66833822338263     -4.14244606161014
  H   0.26970590635008     -1.01710578963187     -3.74832272300259
  H   -0.25596832277164     -0.81890275648354     -5.44853335283412
  H   1.84595624025818      3.44533843559768     -4.00602435707319
  H   0.11886717021370      3.62068607329532     -4.42507118821766
  H   -2.51876637475517      3.57576108804507     -1.56651854192999
  H   -1.47744277130341      2.18490302808943     -1.99021482506067
  H   -1.86098058274872      3.39072872532273     -3.22891855323898
  O   3.21590091933244      3.37617944454803     -0.01825122704611
  H   2.96831628232886      2.83051279113783     -0.78118293998785
  H   2.46327380902303      3.97024218401514      0.09624343596546
  O   -2.13010027604142      5.58839385987802      1.50287712416044
  H   -1.68330105456595      5.21110631980098      0.72952481201150
  H   -2.86881686839648      4.97476618462048      1.68302593263329
  O   3.53138739032905      1.24962709069370      1.99261405214281
  H   3.42185646465144      1.98252549487233      1.36207997821920
  H   3.67724718849808      0.47117333663427      1.42489844248020
  O   5.03450951746052     -0.11564742409052     -2.20477435070069
  H   5.83086645143680      0.40373407204377     -2.03709223878731
  H   4.34836049371042      0.54611156468793     -2.38080003447446
  O   -4.27549393961465      3.78093908104679      2.00707289929764
  H   -3.86600426750892      2.96193349633585      1.68997525779046
  H   -4.41765514707843      3.63221496237766      2.96581033152960
  O   -3.62356807359996      0.21590783356479     -2.46802025658389
  H   -3.47848854099165     -0.21543644472513     -1.61566490636533
  H   -3.99207411891652      1.07406561537797     -2.22614094129712
  O   -4.78656187121262      3.46378896266685      4.76188281660791
  H   -4.01183804921128      3.74740104420684      5.26202791003372
  H   -4.92918584083544      2.53431912027373      5.04396258460560
  O   -5.32744620177539      0.82493278810775      5.57111404741989
  H   -4.61210526564394      0.20103621522274      5.33976000029170
  H   -5.36540687286425      0.79898835184174      6.53499582417420
