52
Coordinates from ORCA-job inp
  O   2.47207622774748      1.76494039206573      0.03263571353379
  C   1.85353209249940      0.62431624223113      0.40213745903653
  O   0.95689469272527      0.57889588310789      1.21173962205410
  H   2.00416181729452      2.47495465450448      0.49782005877304
  C   2.46918422649973     -0.57026574004763     -0.28670502807152
  H   3.50208373519773     -0.66132977502394      0.05769359899590
  H   2.49603365078939     -0.40688242749011     -1.36252323687976
  N   1.69302335944574     -1.74499842662814     -0.02597970177190
  H   1.31148398301905     -1.90374012427257      0.89527848198984
  C   1.13936400631338     -2.46287669846508     -1.02726832524609
  O   1.45980376062933     -2.36468202003327     -2.20929712907138
  C   0.00650376628047     -3.38648173850569     -0.59379962966376
  H   0.25518383593077     -4.37749711618721     -0.97355172412037
  N   -0.12593618365670     -3.44569948693711      0.85936961660560
  H   -0.83723615449763     -2.78255314543175      1.15505770842123
  H   -0.43263615768623     -4.36399304053164      1.14973840456994
  C   -1.27713615762465     -2.89464308409155     -1.30742362447570
  H   -2.05948612834304     -3.63949501415319     -1.14760270383873
  H   -1.07560615471158     -2.84034001315299     -2.37704292662318
  C   -1.71876609735337     -1.57020956084419     -0.77860740977172
  C   -2.61585614471885     -1.37165220273826      0.25549494335285
  H   -3.22171609617914     -2.09250859084528      0.78159613715696
  N   -2.71310651700456     -0.03240538764353      0.54223077739907
  H   -3.29920582592443      0.36783540879516      1.25307654771294
  C   -1.88275584549187      0.67145438096302     -0.29117982640890
  C   -1.63976630730102      2.04378537866327     -0.36724351233679
  H   -2.13473595712107      2.74275734803948      0.29447537000348
  C   -0.73864609049551      2.47863705009816     -1.32738796155729
  H   -0.53147618133780      3.53635818967477     -1.42253511301672
  C   -0.10032619896956      1.56696763457697     -2.19195914987026
  H   0.59156382578714      1.94248667170221     -2.93399453587416
  C   -0.33875615552385      0.20357668923713     -2.11284576023257
  H   0.16374382763671     -0.48634518702719     -2.77676418582708
  C   -1.23998619344854     -0.26877514664792     -1.14151160169194
  O   1.24906812424095      3.76098124575833      1.54104504524266
  H   0.65496892610062      3.32229468044217      2.17577223560612
  H   1.91754866237092      4.18877035613996      2.09085348712890
  O   -0.80191283423319      2.03770068353153      2.88151999874399
  H   -0.46818646186324      1.38262250998563      3.53344673623940
  H   -0.54743182924711      1.61904092219227      2.04239421242615
  O   0.17086082902493     -0.02606535815539      4.54816373520753
  H   -0.51405222911581     -0.35572900139039      5.14218889424471
  H   0.47601738455498     -0.82189922926740      4.07029307713284
  O   2.96008586802823     -0.69667773155834     -3.97752081405007
  H   2.33904593961552      0.00126624082141     -4.21511135597550
  H   2.45566109980138     -1.25874774762947     -3.36179290017775
  O   -3.62777681517841      1.66079493803521      2.83344125801249
  H   -4.05348116650851      2.47629003132065      2.54409471258025
  H   -2.67716729082683      1.88950778465476      2.88892797794983
  O   1.16984146530529     -2.48668809627177      3.43665136848452
  H   2.13332741671908     -2.51981926956135      3.39238338465597
  H   0.87118482593413     -2.94100596267890      2.62605665986916
