89
Coordinates from ORCA-job inp
  O   4.14170987105156     -1.77836178582363      0.51667702820697
  O   -0.96525310229976      1.95459690238747      1.34806268288192
  O   -0.50152489706008      4.02165838485037      0.58084098738137
  O   0.84521034713728      0.10492962860417     -1.09097285725173
  O   2.53597235476040     -0.42796169467382     -2.51884665142912
  O   -2.79403487051181     -1.70354351130842      3.47482304915014
  O   -3.57634316637198     -0.49905409856765      1.70323766114955
  O   -1.52877337686756      1.85526553353784     -3.88363991280766
  O   -2.91931882647718      0.05306989119441     -3.76954156591086
  C   3.16042634715594     -1.36122817986668      2.59673170999522
  C   2.08923579507942     -1.40026302635726      3.74494145205825
  C   0.73107325653490     -1.96926602337009      3.44552734998654
  C   -0.39350330250605     -1.30780463120825      3.11200951982765
  C   -0.51505691371130      0.19196383480380      2.97424338744663
  C   -0.30303027858892      0.64951635838096      1.52617489880922
  C   1.18259945387167      0.85772109783673      1.12594013609613
  C   1.71544494229272     -0.11485019828201      0.06715194762590
  C   1.71312136275565     -1.60128720623446      0.42329140596137
  C   2.92205358227875     -2.08979719060536      1.25808309188933
  C   1.22870619105650      2.29317485367355      0.66063442849356
  C   -0.12008999117281      2.88944579202551      0.83354170353193
  C   2.25624971454354      2.98249101488302      0.15280240760257
  C   2.82941217981965     -3.60972860541185      1.44062487436249
  C   -1.60669494468624     -2.10573287466314      2.71113915464462
  C   -3.70687391186319     -0.90873698142872      2.84801592286074
  C   -4.87995946462046     -0.63026432920348      3.74738606873190
  C   1.39297150356118     -0.02609909165801     -2.33344909765464
  C   0.42039837004326      0.42354774659984     -3.36289192730307
  C   0.53419205776537      0.09160929154158     -4.66562908690802
  C   1.54722916838710     -0.77964471783325     -5.33227037857829
  C   -0.70252276284385      1.29918988350086     -2.82981585072568
  C   -2.61621443563443      1.12395641918409     -4.27174385988633
  C   -3.34316915191341      1.80385322853386     -5.39753660174182
  H   4.04446787556034     -2.15320552762315     -0.37928394010186
  H   3.38752602005468     -0.31365084076746      2.35393997077027
  H   4.10015034502436     -1.77221452404382      2.99278873210117
  H   2.51078254919934     -1.99068499470114      4.57133295408253
  H   1.98047602363819     -0.37500391539073      4.12932550339459
  H   0.65751036506939     -3.06020054773375      3.49572382561463
  H   0.19414560858836      0.71759481802923      3.62909413025266
  H   -1.52273714035252      0.50703642286123      3.27985999065048
  H   -0.81905042299007     -0.02386511631584      0.82803435351592
  H   1.80836136016487      0.75255227374567      2.02081417780060
  H   2.73847217677958      0.17860057208054     -0.21178675094146
  H   1.74486517394538     -2.15710385481944     -0.52686343514703
  H   0.77443551900755     -1.88162443613238      0.91492954515517
  H   3.24443683272204      2.53839739901132      0.02484358914919
  H   2.12142764588779      4.02189129313491     -0.15167265314652
  H   2.82376147185608     -4.10988852869323      0.46024520943866
  H   1.91209741244520     -3.89991458407308      1.96971039594270
  H   3.69490021609249     -3.97115011291793      2.01319545271303
  H   -1.83095153544346     -1.97761339261938      1.64063774421095
  H   -1.47171951113207     -3.17239596835769      2.92460101351100
  H   -4.54452266309698     -0.39625475309004      4.76573440140433
  H   -5.50767634298905     -1.53224879149164      3.80149593635055
  H   -5.47120623501946      0.19526510939142      3.33877432978595
  H   -0.22008412783635      0.50992587447904     -5.33878335017424
  H   2.24000358842077     -0.15565434786549     -5.92275305337518
  H   1.04479032448593     -1.44557041322371     -6.05043737590340
  H   2.14296839515443     -1.37045174049049     -4.62972009713912
  H   -1.33212741697646      0.73450302467260     -2.12888217629077
  H   -0.29174585523415      2.17143364175785     -2.30443883601311
  H   -4.34190976931702      1.36982482731155     -5.50772938421626
  H   -2.77918414643795      1.64242835075919     -6.32903733794723
  H   -3.40702474796838      2.88585472424125     -5.22941119002867
  O   -1.98543152596299     -1.41278899196218     -0.84575935310809
  H   -1.26879562680602     -1.55776566592450     -1.47505404884147
  H   -2.78831046799577     -1.71181791595316     -1.32130980822686
  O   -4.41981039876269     -1.97321905610005     -2.23489991392775
  H   -4.18737140527642     -1.33411400984325     -2.92537459017973
  H   -5.00512570409260     -1.46574028699688     -1.63588110199361
  O   3.96591376398687     -2.85714847326541     -2.12081495780292
  H   4.84412389688292     -2.83353359065970     -2.52077952127900
  H   3.51599019815232     -2.07367926974163     -2.47792216299932
  O   5.30836576896273      0.80665300377042      0.30418896591346
  H   5.31504077925028      0.97690293402577     -0.64478388803395
  H   4.90283254642159     -0.07925370348518      0.38092451958089
  O   -3.56578540997542      1.40214657932626     -0.98472451450157
  H   -3.58186585818415      1.88662152925660     -0.13616982696011
  H   -2.98684099802607      0.64099646866660     -0.81372681328258
  O   -0.06558023276402      4.89620209972636     -2.20158432923389
  H   -0.18678459648295      4.65697812401375     -1.26896871275256
  H   -0.91259847841975      4.67566179462512     -2.60625344261801
  O   -5.80113534645349     -0.26863986067089     -0.39726387129817
  H   -5.16671767017481      0.42730263296194     -0.66775816755642
  H   -5.43507011040804     -0.55177975278390      0.45327497406340
  O   -3.93890885944805      2.46558501036355      1.65342637866556
  H   -4.00915416908399      1.51532415695796      1.84001374933744
  H   -3.02763437111730      2.66805562987980      1.90723376322314
