89
Coordinates from ORCA-job inp
  O   3.26962198025135     -2.36003580481480     -1.12216325912354
  O   -1.80736040408894      0.78876997497167      1.07591395706003
  O   -1.12994846275611      2.61180100028383      2.21301237921921
  O   0.68401943415613      0.80817602892511     -1.53042159244704
  O   2.80777243115763      1.28281000197455     -2.20917886080176
  O   -1.42814721431783     -0.75632371343831      3.69446714640785
  O   -0.07395691109167      0.63457306256242      4.74275513761079
  O   -0.44410501715356      0.70258093286361     -4.27232765063203
  O   -2.11371099428371     -0.12148970223452     -2.95038844261782
  C   1.59516585045607     -3.38104898865400      0.18218212854860
  C   0.13768540511197     -3.89302813956446      0.37490514558133
  C   -0.44988308349576     -3.44106843780827      1.67950918652824
  C   -1.33638239213769     -2.43900834499237      1.86124314625498
  C   -1.93524418371973     -1.64645563283406      0.71959063073292
  C   -1.22888885007635     -0.33661583175012      0.31890530714888
  C   0.30165084260535     -0.27379374394519      0.55571319399046
  C   1.14344049258275     -0.32249637965020     -0.72145712116488
  C   1.00152187649504     -1.57908965035875     -1.58786924598239
  C   1.88539798884917     -2.79181192234208     -1.20866887736170
  C   0.49043391963801      0.99386822112974      1.34937481307433
  C   -0.84618021969204      1.58370255922930      1.62034686551405
  C   1.62530194187300      1.55213977923760      1.78219760995018
  C   1.74264014357815     -3.86491564634769     -2.29616988011792
  C   -1.80141629845836     -2.11752166078652      3.25429160184566
  C   -0.23022892963460     -0.48880548437361      4.28886367037717
  C   0.82386148885808     -1.56355581485551      4.34213526911485
  C   1.60049801312593      1.47256989005757     -2.28901743534657
  C   0.90884041093059      2.39561114778423     -3.23067576857030
  C   1.49516710215997      3.50619519178223     -3.72913410625332
  C   2.84071155923334      4.07155187645712     -3.42243380653578
  C   -0.49556875600580      2.01821116622231     -3.61259527657804
  C   -1.27630394169480     -0.27557032443670     -3.82912622814021
  C   -1.04397799449842     -1.56009307769927     -4.57845101673322
  H   3.53146239578200     -2.01635049626282     -1.99731977354755
  H   1.84241873105392     -2.61757152274177      0.93437404312427
  H   2.30925855197637     -4.20002708301275      0.34805386319534
  H   -0.49115749828977     -3.55523945155691     -0.46005134461306
  H   0.13278268973277     -4.99168105192599      0.33319351039776
  H   -0.08029660903466     -3.96448164506503      2.56803759674714
  H   -2.98283390238583     -1.39306334337047      0.94237622124162
  H   -1.96462655571605     -2.27186497349253     -0.18400036335884
  H   -1.46840916958717     -0.11737427425313     -0.72956016999706
  H   0.59895612736659     -1.12845156060610      1.17727934716101
  H   2.20312963639682     -0.17366660076632     -0.47174383862652
  H   1.29792850431317     -1.28885739689549     -2.60820164207262
  H   -0.05491929092353     -1.87637293411039     -1.65780726815626
  H   2.60143124520016      1.10819360076109      1.58181896710531
  H   1.59408020391652      2.47820650965950      2.35836651644015
  H   0.70413290370960     -4.21596478829073     -2.38009940607960
  H   2.38443267215037     -4.72466286224671     -2.05935903994312
  H   2.04227049662055     -3.46140465379850     -3.27527472529199
  H   -2.89815434676953     -2.09011668898680      3.30204252271079
  H   -1.43986860264324     -2.85449588856182      3.98283717061681
  H   0.46587718927107     -2.44631061480738      4.89034264125346
  H   1.71107783881525     -1.16273412389120      4.84036399133672
  H   1.08621853805310     -1.89663140408467      3.32901952771879
  H   0.89791958600177      4.08576846853066     -4.44173890422394
  H   3.50304972268344      3.93390947899445     -4.29446394580797
  H   3.32067152330154      3.60393125647886     -2.55698166141606
  H   2.76145343816250      5.15823879736891     -3.26593149546232
  H   -1.15845025434365      1.94585806842983     -2.74146292513861
  H   -0.91470959397221      2.72531389120380     -4.33917147297140
  H   -1.41319221947827     -2.40241252810616     -3.98369946872600
  H   0.01601501877479     -1.69514062165032     -4.82405578973212
  H   -1.60849234849233     -1.52385359623555     -5.52208886607231
  O   -0.03241964783738      4.30062778749916      4.40682973960950
  H   -0.17045362745648      3.93327285568503      3.52076545810361
  H   -0.72876743520705      3.84621919320058      4.92523777322915
  O   -1.99016921014699      2.61176877627336      5.63235622712824
  H   -2.70121510830348      2.68779652857274      4.96621874419153
  H   -1.46837738543695      1.85103693621663      5.32016084931506
  O   -3.75639864102655      2.75558396564315      3.37209186203277
  H   -4.17731626960780      3.61522426719431      3.25001526476516
  H   -2.96593539048520      2.78912582895977      2.80325282696617
  O   3.97415341682169     -1.05715053320006     -3.53404641426318
  H   4.92761475887816     -1.02761938156020     -3.68158600553188
  H   3.74821442537373     -0.16663865895232     -3.22032703839094
  O   4.21315196164672     -0.96458889279522      1.16757253891961
  H   3.91577410223402     -1.41976081834272      0.35599354982572
  H   4.74726263704419     -0.23063321501797      0.84275909753941
  O   -4.10076123532253     -2.13666949344692     -2.25194984392656
  H   -3.41726481300714     -1.48871032506841     -2.49091234010246
  H   -4.91810491739869     -1.62602992064097     -2.27379649656615
  O   -3.88022765041521      1.58245875458222     -1.15812415244251
  H   -3.38942402563963      1.55371488571590     -0.32655891046743
  H   -3.29022847671987      1.14405211289308     -1.78767008113543
  O   2.12313298392581      2.55733891398278      5.24156421603356
  H   1.62198541769959      1.73571172101907      5.13463471673187
  H   1.46877591715654      3.23086987344946      4.97448872085876
