116
Coordinates from ORCA-job inp
  N   -0.62368398624871      0.54817433321433      2.49129231690163
  N   -0.70715755418271      1.81703319635111      3.14106899261144
  N   -1.87968257225836     -0.77267783821006     -0.51113601077555
  N   -3.60133088082049     -0.47736580540987     -2.62449572856491
  C   0.79754752275709      0.79355173693458      4.82581710418971
  C   -0.41708116659457     -0.13771959714547      4.84004465223194
  C   -0.72518337829613     -0.60722626303413      3.41404580013492
  C   0.50032353478974      2.04581011206668      3.96163464951749
  C   -0.72613178294529      0.51821536259062      1.14377029670844
  C   -0.80187345391411     -0.85103567676898      0.46276221149913
  C   0.57241867753994     -1.19991005147402     -0.17377522697328
  C   1.55351203043352     -1.64908116436315      0.88458109662654
  C   2.35297957634426     -0.72307721400369      1.57136256876371
  C   3.19082107798645     -1.14614398896039      2.61473170419427
  C   3.23543368914397     -2.50103220048303      2.97635938390228
  C   2.44106533434429     -3.42165886091365      2.29076755090318
  C   1.60048890511306     -3.00343874983866      1.25343759276497
  C   -2.78847086781348     -1.76736446256226     -0.67824496918625
  C   -4.01411787350058     -1.37617884143420     -1.54578804432190
  C   -4.84756300016140     -2.60665744912807     -1.99859722435245
  C   -5.69988309625844     -3.12150608335266     -0.82694392291144
  C   -5.74620021159683     -2.27056906365980     -3.19628138914098
  C   -2.74651473221832     -0.87482156710431     -3.60918648857124
  C   -2.45147865091967      0.17236376641858     -4.67787214144520
  C   -2.66372927592697     -0.40333732220102     -6.08279708586683
  C   -1.02383435480527      0.76104022157292     -4.45725111350271
  C   0.10608203852014     -0.20442319693236     -4.80672016239366
  C   1.51543480222667      0.41473907026306     -4.70980698775485
  C   1.74573680940639      2.49689832592850      3.18594429078039
  C   2.56198088870378      3.73159209278944      1.28765714033224
  C   3.28736616830125      2.65261240763215      0.52954043055173
  C   2.72001137484200      2.10237083437400     -0.62571293678326
  C   3.37917647180501      1.08404420249384     -1.34481749720069
  C   4.60512484092241      0.60349089331534     -0.83861763561324
  C   5.17653093333818      1.14849448586358      0.31173248575022
  C   4.52915234542975      2.18238374795803      0.98977177906785
  C   2.88168507696431      0.52741457705743     -2.60847242954803
  C   1.87141640090826      0.98737477173283     -3.37107902876918
  C   -1.46617882995956      3.11251679448650     -4.71272508111951
  O   -0.77208083757331      1.55871799322853      0.45135867220602
  O   4.00141813708018     -0.28842919018126      3.31608564656515
  O   -2.68733891154327     -2.86982342184312     -0.12286230026207
  O   -2.22326311882583     -1.99925303831133     -3.60034849226594
  O   2.89585774258259      2.28822389154899      3.56520680885015
  O   -0.84693344692612      1.94305022669972     -5.25779589884295
  O   1.43516580035364      3.19151406338127      2.08632051020342
  H   -0.76476923454460      2.50191387257695      2.37578854358001
  H   -2.01325662401657      0.11869121821909     -0.98701825014927
  H   -4.09794670911870      0.40202328630670     -2.73344197436425
  H   1.65824051679690      0.25227807653137      4.40939994339966
  H   1.07678782066735      1.09894339519403      5.84128989335318
  H   -1.28931032767378      0.37057512052387      5.27345865670256
  H   -0.21174614904702     -1.02271590842601      5.45776824787113
  H   0.02207085534359     -1.34937734322141      3.10175521930746
  H   -1.72812601736928     -1.05567262086758      3.34999419073379
  H   0.25316253479295      2.90009131531304      4.61354381081501
  H   -1.07282866856391     -1.65301643332624      1.15984930428382
  H   0.94139017464093     -0.32680544610955     -0.73047950661392
  H   0.39775430758191     -2.00927542946866     -0.89665344637893
  H   2.33499329594272      0.32806355097473      1.28122774768053
  H   3.89015106054884     -2.81301328665344      3.79150216970904
  H   2.47534772390940     -4.47558198575945      2.57308653361568
  H   0.97349194807274     -3.72743552369026      0.72893946998209
  H   -4.65120652986223     -0.76135266694525     -0.88878182578767
  H   -4.13827485226635     -3.39244892700238     -2.29745075246334
  H   -5.08071955912100     -3.35214917856429      0.04878867868650
  H   -6.23928493431192     -4.03498634269453     -1.11856290751236
  H   -6.44950333407148     -2.36663653569894     -0.53756029146574
  H   -6.37163502755550     -3.13960242957571     -3.44769220519182
  H   -5.16559776288458     -2.00666520938182     -4.09052227257107
  H   -6.41726554092367     -1.42836002201424     -2.96339116474656
  H   -3.15187160809821      1.00978006934648     -4.53358701782072
  H   -2.12719192245834     -1.35331083127888     -6.20563915595224
  H   -3.73193186762086     -0.58873236093294     -6.26365505949418
  H   -2.30391647831376      0.30879353809587     -6.83783862090796
  H   -0.93946584489788      1.04766281021843     -3.38835299687069
  H   -0.03488026083844     -0.56905093872369     -5.83514530067394
  H   0.02381673682732     -1.07627239936759     -4.14256139499725
  H   1.58176880568568      1.21947833536084     -5.46115922019538
  H   2.25221508747111     -0.35396186142822     -4.99048952693740
  H   3.23467207766023      4.26799842875581      1.96860469000906
  H   2.06408279488686      4.44055188179142      0.61823732491798
  H   1.74314718469140      2.46237588440126     -0.95479100799245
  H   5.11927803493275     -0.20084471184534     -1.36935699984818
  H   6.12847810434737      0.76517811582559      0.68176135617199
  H   4.96635203428099      2.61252939276159      1.89130949007065
  H   3.45184486413814     -0.33081979381590     -2.98446191157963
  H   1.29130991319922      1.85662696673774     -3.04202215695877
  H   -1.17283043828113      3.95396095035158     -5.35247359318139
  H   -2.56806541041466      3.04222610715351     -4.70530012824638
  H   -1.11649865130403      3.30225155668177     -3.68122386168883
  H   3.73122583357668      0.64678526584273      3.16406823361007
  O   -3.60744224093004      2.24544161561014      0.32639521963486
  H   -3.96365212078527      2.27821399059218     -0.57976977018179
  H   -2.64411177940908      2.17017566112666      0.22178352498848
  O   -1.71394550856031     -4.14738609510333      2.28564407862607
  H   -0.80882549732137     -3.86658335619155      2.46645299864854
  H   -1.94797604724897     -3.67804077228156      1.46682380483855
  O   -0.82346694952134     -4.10903017951235     -2.15765443019517
  H   -1.22317802510699     -4.03774578581018     -1.28022699889195
  H   -1.25869358478636     -3.38936027131307     -2.64228910739874
  O   -4.79657060280823      2.22807281019622     -2.34331453008788
  H   -5.75566825609258      2.34230392374737     -2.33511076244542
  H   -4.47697222293156      2.91506368912618     -2.94257204126666
  O   -4.52511316586146     -0.03680218545810      1.76280404071595
  H   -4.14931570073534      0.70330010617494      1.24425773386657
  H   -3.77804197224455     -0.62488795220919      1.91999437314026
  O   4.18343108033618      1.25192001917183      6.10237730631149
  H   3.64991805617589      1.68268545186987      5.41864499678731
  H   4.27430556827936      0.35105124588743      5.76901047740888
  O   6.84862664294444     -0.86982171046700      2.88739418864925
  H   5.92131205845829     -0.64550707052892      3.06466728100422
  H   7.17113371161444     -1.20083983201963      3.73333947435890
  O   -3.22532626708503     -4.20915169676754     -5.18250635578189
  H   -2.91993105930402     -3.44724289049970     -4.66261766319264
  H   -3.98640010102540     -4.53371223219734     -4.68770731151645
