55
Coordinates from ORCA-job inp
  O   -0.66970884643074      0.21087788782849      0.22077487403443
  C   -0.31542895653592      1.60604557968291      0.37790264143580
  C   -0.11951875668735      2.06067693483850      1.82316852823308
  N   0.47794093027171      1.23543518445087      2.71486778741466
  C   1.14136097131582     -0.06320197627550      2.52455079268226
  C   2.49758080013647      0.01047725917736      1.80726188314240
  O   2.40503080116395      0.07359593996698      0.37359285909295
  C   2.13191084046281     -1.21153632057335     -0.20956381358958
  C   2.12618079715551     -1.08606656678730     -1.72755195678690
  N   1.02588110339522     -0.28479967153733     -2.26863154319823
  C   -0.27526892587250     -0.63511771199577     -2.40999598651079
  C   -0.69175885293521     -2.07741192266876     -2.07791487389602
  O   -1.01858879720971     -2.26891996114836     -0.68681753486485
  C   -2.17943874214140     -1.56684581907393     -0.25274823811642
  C   -1.97836868729030     -0.09730055606356      0.11188029870508
  O   -0.47677891026035      3.21315265628754      2.13308354960592
  O   -1.13682878810010      0.18186710033080     -2.79122540637219
  O   -2.90178858689547      0.67717681557220      0.29950087066289
  H   -1.07988875516487      2.24668161484520     -0.07403872766278
  H   0.63992100615072      1.70799263059074     -0.15175579044882
  H   0.60582099351306      1.66512343392007      3.63106314821567
  H   0.47144102248411     -0.75662519196973      2.00365188589710
  H   1.30331092886002     -0.46640511260878      3.53229547916682
  H   3.10166072453015     -0.86786644326649      2.10160040578913
  H   3.03350073112393      0.91788312137124      2.11974364174924
  H   1.15795094372997     -1.59858070295437      0.13030111882521
  H   2.92209074731532     -1.92975002212211      0.08105681495464
  H   2.09925083822739     -2.09655084959583     -2.15885511153748
  H   3.06007073318164     -0.61761223181723     -2.06515587008402
  H   1.21970079724933      0.69945261822502     -2.44938870135345
  H   0.10294106479398     -2.80214906037850     -2.29030427392319
  H   -1.56548874765524     -2.30547364637746     -2.71000776239159
  H   -2.53556863071704     -2.07623747775875      0.65523482375243
  H   -2.98791852241629     -1.60279588186269     -1.00274887267722
  O   -3.90938376633375      3.41529127521279     -0.53326827912974
  H   -3.10567435460666      3.95226890762859     -0.42524614494146
  H   -3.62937748888544      2.54062395256473     -0.23033985847156
  O   -1.30005782567089      4.67310774624142     -0.21672012155042
  H   -0.98233490474312      4.34962301415316      0.64916084147080
  H   -1.15103465966010      5.62609576014277     -0.21128833895572
  O   0.00302115972047      4.65314413237081      4.51777928805222
  H   -0.85428840848928      4.88857380091863      4.89249520371109
  H   -0.21409164528188      4.18064779478847      3.68878916181608
  O   1.07871320041287      2.24320922753076      5.48111264680452
  H   0.68975524841738      3.13016411200419      5.33004524486059
  H   0.47065276577656      1.81654248400814      6.09645545279364
  O   -3.98837893135014      0.41788929326123     -2.81806639709725
  H   -4.19515211203688      0.56300485649141     -1.88699353770477
  H   -3.02780171524423      0.25715738919079     -2.81735089209426
  O   -0.85611110754728      3.13532130679051     -2.79624099173709
  H   -1.07686828705174      3.57584451074646     -1.95879997953880
  H   -1.06527036853965      2.19215951958746     -2.66696523215989
  O   1.89611460083877      2.56628620919800     -2.73748305533591
  H   2.27374350514228      2.88070903202057     -1.90722383073891
  H   0.97907427195812      2.91486301291563     -2.73501860338814
