58
Coordinates from ORCA-job inp
  O   -2.44163484932854      0.91860003047684     -1.72512090128658
  C   -2.65496518697310     -0.26827759805375     -1.79796194013284
  O   -3.21293477862918     -0.86121025519516     -2.87421985762425
  H   -3.36969504616923     -0.15071679195688     -3.51461747344239
  C   -2.40525496351594     -1.28491864616194     -0.69631720910251
  C   -3.70234494892166     -1.53216036759387      0.06437359104043
  H   -4.03901493659633     -0.61033315909849      0.53957619537780
  H   -4.47828493062517     -1.88254842477876     -0.61131367565421
  H   -3.53968494670561     -2.28229487485322      0.83525934480695
  H   -2.06144498096469     -2.20112996880848     -1.17278978016051
  N   -1.39260493204565     -0.81487674735149      0.21479209263709
  H   -1.69745498780187     -0.30720240735848      1.03362022650124
  C   -0.15610493686040     -0.52774409886251     -0.27474447542473
  O   0.19462489250171     -0.85601176674286     -1.40275205990160
  C   0.74672319450694      0.24307370685991      0.67129324920252
  H   0.76806664178589     -0.24360861349686      1.64866251667831
  N   2.07162420876749      0.23032052671854      0.12169801353265
  H   2.20906585836338     -0.02321381438962     -0.84786094275251
  C   3.13791580446758      0.49198100613440      0.90288255048271
  O   3.05312396291914      0.77457848212846      2.09714493449136
  C   4.47932438441699      0.43871101777748      0.19030275820385
  H   5.18842491498670      0.00438959947485      0.89787331584026
  H   4.78305494822045      1.47319211830911      0.03072626047333
  N   4.39755569316537     -0.23042325926307     -1.10427777117124
  H   4.44012428546325     -1.23423190328133     -0.98608544372143
  H   5.18196478020975      0.02704269755108     -1.68649443027298
  C   0.22875531442742      1.68822033840208      0.87456519879905
  H   1.06792492607502      2.24975713291900      1.28536699796611
  H   -0.03679503638359      2.11344993200209     -0.09430066412946
  C   -0.93090506998133      1.75353924197468      1.82636797438094
  C   -2.21832495883111      2.09141007487409      1.39606987746842
  H   -2.38002497913559      2.32997686417851      0.35317167475250
  C   -3.28596495998831      2.09930905837588      2.29400618000567
  H   -4.27564493346331      2.36769151832557      1.94863952709526
  C   -3.07967495693732      1.76626370303889      3.63159872572368
  H   -3.90760493669263      1.77168676477299      4.32728011928505
  C   -1.79786495998365      1.43471945571625      4.07088540078240
  H   -1.62848499303175      1.18559937836278      5.10968641254040
  C   -0.73179496466090      1.42996065570508      3.17486462858784
  H   0.26759491798178      1.18274642005439      3.51475068303483
  O   -3.77998861228781      0.95939412541078     -4.82068783223816
  H   -3.50956606861877      1.84456322925467     -4.49629893893464
  H   -3.21796232429574      0.79502798658725     -5.58806466909477
  O   2.93652256392017     -0.30955187583272     -3.65106631849595
  H   3.33100016009381     -0.10235660077404     -2.77659883953212
  H   2.17473974257754      0.28001656962121     -3.71516950284316
  O   1.90982366354122     -2.79971868573238     -2.71556868312563
  H   2.27867108094429     -2.00105643862647     -3.14666321536281
  H   1.16939670639733     -2.42767419666665     -2.21192103753615
  O   2.05038208441458     -1.10644543877481      4.02181021279140
  H   2.35278983228280     -0.41279896341204      3.40947948088648
  H   1.71273565745405     -0.61689325322929      4.78035746759224
  O   3.73787497458031     -3.24900221331100     -0.60176667434419
  H   3.12756300190716     -3.16503226957863     -1.36459655765217
  H   4.35523908610031     -3.94144015096218     -0.86366986853689
  O   -2.92447790358700      3.21489762020065     -3.39490169234432
  H   -2.78026884094515      2.56472865423334     -2.68546314223206
  H   -3.65196059807952      3.76357069976118     -3.07696971104239
