52
Coordinates from ORCA-job inp
  O   -2.40143640700287     -2.56894458987464     -0.24079235794497
  C   -1.26045609903475     -1.95410197930426     -0.59961752867706
  O   -1.20238605104958     -1.06852897722566     -1.42357295160961
  H   -3.10779545691372     -2.11447941560982     -0.72473883969305
  C   -0.07120535367607     -2.54215997770263      0.11448649262438
  H   0.03355379570481     -3.58258536013925     -0.20142553039500
  H   -0.24107602936415     -2.54388216154950      1.18978694754161
  N   1.09391005304258     -1.75455106075710     -0.18790022721989
  H   1.00497752220298     -1.15018957891715     -0.99108994019357
  C   1.93179471014515     -1.35616849188340      0.80656075096962
  O   1.92155383093385     -1.84959082671404      1.92976525716660
  C   2.88283366617372     -0.21523317354448      0.45467488523171
  H   3.83638386706188     -0.47692878079757      0.91437173585625
  N   3.10482405343657      0.07823328836984     -0.95086153267668
  H   3.31930380214297     -0.75923012855643     -1.47658184123616
  H   2.27826333876566      0.50443869023102     -1.35573638548659
  C   2.35856392110730      1.05666826925373      1.15009996608046
  H   3.10475389163760      1.83874002602138      1.00626945033256
  H   2.27744391313070      0.85395553943328      2.21780763086542
  C   1.04017392958146      1.49289507378866      0.60061548548982
  C   0.83664386202874      2.37415753510776     -0.44492395267523
  H   1.55890392635051      2.94957404727169     -1.00185722944737
  N   -0.50754529999057      2.48636950524292     -0.70664399841770
  H   -0.91191673485438      3.06352939432935     -1.42259505645942
  C   -1.20802618226738      1.68203125934558      0.15414848028611
  C   -2.58126593221622      1.45811844776660      0.26594450752973
  H   -3.29017598808265      1.95442677773546     -0.38408905823541
  C   -3.00424598992217      0.57091727178440      1.24485430811505
  H   -4.06188595385222      0.37820573954390      1.36663193869878
  C   -2.08182599557332     -0.07282299609073      2.09443649531407
  H   -2.44962599969615     -0.75512204413361      2.84910826574791
  C   -0.71793604135262      0.15121842954137      1.98347927839872
  H   -0.01868604099558     -0.35304948052695      2.63802314556902
  C   -0.25918600668891      1.03997985685269      0.99521959284605
  O   -4.62080853930527     -1.46558396656972     -1.38695943628011
  H   -4.36509068420303     -0.72955116178661     -1.97324848472614
  H   -5.11241284733286     -1.04460163016738     -0.67019151152553
  O   0.48005531934756      0.68359049042627     -3.46998569575721
  H   0.06673384598099      0.13261259136369     -2.79237909070561
  H   -0.09716870153718      1.46632555493285     -3.49805518830436
  O   0.21647520169560     -3.15670018550525      3.81883652561638
  H   0.03947869846998     -4.05516849667698      3.51818866260815
  H   0.80085600182834     -2.78926784548267      3.13269744654566
  O   5.19804178451691      2.04594351832329     -1.03428460140698
  H   5.80428150506131      1.80118996108125     -1.74204756914334
  H   4.49793096635097      1.35170612350131     -1.06444150914806
  O   -1.63146101165759      2.78276645227476     -3.45762236749717
  H   -1.86213612212412      3.21905338330318     -4.28635204208940
  H   -2.27856092650160      2.05656979850173     -3.36660861793341
  O   -3.11840781558579      0.35670269637199     -3.03246191791443
  H   -2.43107307339562     -0.09744018221099     -2.50756944585437
  H   -3.07958031726704     -0.07598185797644     -3.89641785040649
