137
Coordinates from ORCA-job inp
  O   -1.95003449648949     -2.82524789931326     -1.13404846949718
  O   -0.86594359558950      4.67385354858720      4.52887669051728
  N   -4.22093266683122     -1.84603527322050     -5.16658175716249
  N   -5.14343012747432     -2.20428762965847     -2.18262496153558
  N   -3.51749098492380     -1.87087618003504      0.21712112817328
  N   -0.64672265381621     -0.54088622413202      2.24756756498631
  N   -1.35880310206684      3.08718459101245      2.97505389026697
  C   -5.37152981998835     -2.72943372450745     -5.41043933644605
  C   -5.90420862035423     -3.55322133691494     -4.22212641651746
  C   -6.26897438068421     -2.73411265108178     -2.96364473106589
  C   -4.46201470618261     -1.01109929925822     -2.72575443466116
  C   -4.52379450464408     -0.74529989542660     -4.25077972723786
  C   -4.27980906050632     -3.25627227106371     -1.64185365484058
  C   -3.14626118743764     -2.65417548051035     -0.81781202714493
  C   -2.58724053849223     -0.92225380088112      0.82399108109661
  C   -1.64401673549830     -1.53707388444170      1.86982151837348
  C   -1.16687601193844      0.59866485427764      3.00671486260976
  C   -1.06180222994788      1.89403650791434      2.18138220707994
  C   -0.48586110402431      3.77507263333614      3.75304455842447
  C   0.65260697263812     -1.04595288842032      2.71309655202065
  C   0.65500953156353     -1.60839551083010      4.12231232874936
  C   0.12016231652714     -2.88152040243544      4.38642378982473
  C   0.05025972191555     -3.37059230205860      5.69433980768305
  C   0.51795031165398     -2.59261275063309      6.76232057683340
  C   1.06353091802592     -1.32852179738066      6.51201340189329
  C   1.13155403935193     -0.84468928133049      5.20002741858899
  C   -2.98385180739529     -2.55928056632093     -4.87023510198364
  H   -4.51678747345714     -1.71278089533810      0.33290963110312
  H   -2.33917485453829      3.33381196360197      3.11129064239924
  H   -5.09763855041566     -3.41503111174429     -6.22896004278148
  H   -6.18605901678551     -2.08941769346042     -5.78886552059766
  H   -5.18280276924450     -4.34099968919110     -3.95250592449746
  H   -6.81050564363720     -4.08219261592233     -4.56309828456400
  H   -6.92005740158319     -1.88942854518864     -3.24092180346089
  H   -6.86003337059022     -3.37434710012906     -2.28770073737230
  H   -3.40479874542655     -1.04669261039072     -2.42833555490297
  H   -4.87599132729393     -0.10592975162559     -2.24503478776681
  H   -5.52242405536196     -0.37216461019528     -4.52086718103394
  H   -3.82041816558260      0.08349576013246     -4.44531192600003
  H   -3.78682750465452     -3.89688374302650     -2.39840357221123
  H   -4.89544912565881     -3.91998582074968     -1.01199047087397
  H   -3.18946554831693     -0.12032065700225      1.26917365797652
  H   -1.96298722517015     -0.48180401056758      0.03100460900715
  H   -2.23252421821614     -1.92255647253358      2.72849747770438
  H   -1.12657812773925     -2.39104210325946      1.41241808094480
  H   -0.60761784424035      0.73042404123411      3.94775675021156
  H   -2.21281907160037      0.42277772678152      3.30910106468090
  H   -0.05059555787621      1.99860810814557      1.77028048480173
  H   -1.76000421952190      1.86489527516116      1.33413166717757
  H   1.37522442709553     -0.21438610751618      2.64622809124646
  H   0.98915443161154     -1.80666286971515      1.99457087053810
  H   -0.23711545918939     -3.49803453068062      3.55863569820088
  H   -0.36337367497325     -4.36334438202514      5.88222590060070
  H   0.46448762825387     -2.97455441775226      7.78349306070057
  H   1.43936927217853     -0.72035902746378      7.33714227215971
  H   1.57516957963217      0.13633500399738      5.00870148328905
  H   -3.01876442704684     -3.14282759989030     -3.93050594822064
  H   -2.79943938174057     -3.28280195662121     -5.68142161829941
  C   1.00430245166136      3.41962183889150      3.62992287447156
  C   -1.76587940937823     -1.62649521823544     -4.82709089768621
  N   1.49522704991113      3.55388804363979      2.26344390521946
  H   1.53206558274527      4.06620895621445      4.36036435747004
  H   1.14170545101119      2.37507694840399      3.95411951728521
  O   -1.49984808872620     -0.84592068203520     -5.75856836327198
  N   -0.99894512100126     -1.76810923456649     -3.71871526944531
  C   1.37391001672879      4.94513004540098      1.79456413575707
  C   2.77228379905511      2.87464920227918      2.01359515564938
  C   0.23458840994163     -1.03174109002734     -3.47170942034666
  H   -1.34705889032969     -2.35112843117513     -2.94661089776251
  C   2.18972680531440      5.28009053827262      0.54483114317533
  H   0.30566523367574      5.13370195567276      1.59618787410385
  H   1.66854948147864      5.65532035436257      2.59959799570811
  C   4.06808996366142      3.66620355345673      2.32685425312168
  H   2.76169519783701      1.94218410398806      2.59881783490726
  H   2.79615516478266      2.56293777185673      0.96087551418517
  C   0.05158405206201      0.08351374166529     -2.41964721109809
  H   0.99747955877751     -1.73520403347138     -3.11129083960717
  H   0.57979973443480     -0.60313825334904     -4.42103165095210
  C   3.67247052121283      5.60734361976473      0.83901867133637
  H   2.09470254923943      4.48098669317293     -0.20457628380385
  H   1.74552775702034      6.18244811253035      0.09528245222094
  N   4.56712334396115      4.52253566606093      1.24931512404201
  H   4.86862977386954      2.95491210604783      2.58134994923627
  H   3.89757267864352      4.29654433773892      3.21796819137970
  N   1.34501472141998      0.55878077841397     -1.92791868864916
  H   -0.56236277374199     -0.31470423109373     -1.58948744273676
  H   -0.52286655860761      0.91000193575717     -2.86477519825243
  H   3.67839306722921      6.36516754677722      1.64501078980858
  H   4.12228255731456      6.08743834551960     -0.04324339303146
  C   5.34495846188466      3.85480230676772      0.20802013731323
  C   1.63995009893814      1.98418258221733     -2.06333360193761
  C   1.71291742324493      0.02830883746385     -0.60047025832757
  C   4.65392964173135      2.73494266035474     -0.59958322482873
  H   5.72110642697973      4.62662861197184     -0.48128887231231
  H   6.21453187803177      3.37269862843013      0.68087069175337
  C   3.12569344502113      2.20537922146931     -2.47567883825095
  H   0.97978969372544      2.40679255493652     -2.83140053150030
  H   1.43536186592914      2.54176258329444     -1.12478535963556
  C   2.14565164613300     -1.42107118683920     -0.64566580221010
  H   2.56087698806820      0.62164494572861     -0.23192826847020
  H   0.87152025918123      0.14787156984319      0.11518530970391
  O   4.79807130111005      1.53545171329379     -0.29316012525429
  N   3.87644869769386      3.13614076323237     -1.63827808439850
  H   3.18481824005722      2.56217458869082     -3.51224289640442
  H   3.63562388047465      1.23589740231980     -2.42058389721871
  C   3.50048219228575     -1.73960232183023     -0.82747324678613
  C   1.21280736866813     -2.46220375877617     -0.53743541027477
  H   3.83028015001622      4.12891478292799     -1.85166914769680
  C   3.91412875504882     -3.07446374140615     -0.90202980723638
  H   4.22776855681471     -0.92673770473783     -0.90312659569934
  C   1.62017269331571     -3.79798668239585     -0.62022350690886
  H   0.15230514346750     -2.23318660003594     -0.41840176503076
  C   2.97363008275706     -4.10873826139343     -0.79961341636717
  H   4.97201498743850     -3.31024300702457     -1.03636774384993
  H   0.87822887147313     -4.59524100033497     -0.54278936595863
  H   3.29551025315940     -5.15040491597953     -0.85862564996942
  O   -3.65508245756763      4.92702682823533      4.42442672770524
  H   -3.84866654619110      5.66616917283841      3.83694805630926
  H   -2.67998135119289      4.94870198495021      4.52300318934715
  O   3.48805210940969      5.91556750052420     -2.70160057919082
  H   2.63368713727138      6.26334847635545     -2.41710552374670
  H   3.37274905298632      5.76788125600191     -3.64873906763803
  O   -6.47684299431689     -1.19605102656917      0.06483595570104
  H   -6.12041255050251     -1.56869554445765     -0.78479882992538
  H   -7.04680345887112     -1.89234642840471      0.41252323282908
  O   4.47352755868679     -0.23100353174176      2.05391454949396
  H   3.95402896213920     -0.93307919717720      1.64185392439837
  H   4.56081503106596      0.43028539946421      1.34724938188059
  O   -1.21027673487954     -5.32013645513024     -2.44924684719319
  H   -1.45898363203043     -4.49192217115763     -2.00166219286330
  H   -0.40269086056047     -5.08886839227038     -2.92304603104181
  O   -0.52457800905271      1.78776144563550     -5.49606321658992
  H   -0.83195800951923      0.86427051803109     -5.58306548944188
  H   -0.88563701506492      2.22836590662016     -6.27339285521592
  O   7.44141960125100      0.50238808974061      0.11120501255391
  H   6.55229204073352      0.88227196676790     -0.01016138812568
  H   7.57388202713974     -0.03032608098690     -0.68099545111829
