55
Coordinates from ORCA-job inp
  O   0.88153977674714      4.10493073070772     -0.20448911414865
  C   0.64732927327455      3.07925638569999     -0.80246399556720
  O   0.81149983573797      2.94431198825158     -2.13249988890056
  H   1.12060952808467      3.81244058749563     -2.43539627862178
  C   0.11660966217841      1.82388446630436     -0.13431955706676
  H   -0.94267051528533      2.01998471029867      0.04668969344292
  N   0.17430964303395      0.65193239100362     -0.96008946025362
  H   1.05403954955526      0.14903057550683     -1.06050255005798
  C   -0.94983053480283     -0.02407474424574     -1.30439558341852
  O   -2.09177052861859      0.38296813244469     -1.11953961214490
  C   -0.64858057745157     -1.38653060934905     -1.91594134040107
  H   0.08201957799624     -1.28204093556966     -2.71866072293914
  H   -1.57414051895041     -1.79122078456764     -2.31168650981578
  N   -0.11738046626714     -2.29705389729062     -0.92142158344983
  H   -0.70089032329015     -2.97264654595332     -0.44609406173671
  C   1.16608964711685     -2.27273605767424     -0.52571270734628
  O   2.01102969376080     -1.48063175580692     -0.95547080336966
  C   1.52584911642742     -3.33052061883835      0.50174960107290
  H   2.19126987329166     -2.84885988768975      1.22063230399960
  H   2.10972971623011     -4.08495000295025     -0.02583880359370
  N   0.34208040421742     -3.95248598001733      1.08680102116485
  H   0.03359947626050     -3.40706208966179      1.88398326816583
  H   0.55911913985582     -4.87917535545426      1.42591985668362
  C   0.85393961114146      1.60731318551452      1.19046652033380
  H   1.92137970457491      1.49786387783671      0.98427689051652
  H   0.74334961874125      2.51131480487048      1.79070981532404
  C   0.37700958514596      0.40266046380765      1.95784477341050
  C   1.29561965496609     -0.34557159106506      2.70108029397034
  H   2.34546972691675     -0.08208691507539      2.66138760082630
  C   0.87966962451849     -1.40782380402690      3.50183270374896
  H   1.60549968370850     -1.95941709479822      4.08492497925908
  C   -0.47169047068897     -1.74986681005147      3.55760291244303
  H   -0.80335050289458     -2.56172217392040      4.19188056826412
  C   -1.39242053813879     -1.03415217887191      2.79266265973851
  H   -2.44088061080975     -1.29899535482577      2.81734719366991
  C   -0.97230050817898      0.03391159289351      2.00176102537206
  H   -1.70555054671201      0.57021819984494      1.41435220162074
  O   1.64447076135860      5.26714950352508     -3.27436738881587
  H   1.67932369664675      5.95755861151686     -2.57828669820425
  H   2.55821008912539      5.16937175747311     -3.57001147161866
  O   -4.27496390367640     -1.31314239205580     -0.66517708854155
  H   -3.55259319460541     -0.71289113884490     -0.93752129161024
  H   -4.80627954718284     -1.43147620439753     -1.46178991154862
  O   -2.76920823922232     -3.65165324791352     -0.17692085549486
  H   -2.65371402982725     -3.72754815486377      0.77753830037547
  H   -3.33201188018721     -2.85893896559268     -0.29441630579777
  O   4.36003308374018     -0.75744126116819      0.45262835107316
  H   4.32425514543090     -1.16706079815826      1.32432306916995
  H   3.55060257200879     -1.07790342653163      0.00988570562851
  O   -2.59374188067162      3.19567082413403     -1.85547315014036
  H   -2.50453579482777      2.25782170582316     -1.61985182632920
  H   -1.96025952351793      3.31004056985137     -2.57369515473643
  O   1.50975147591285      6.82448906440381     -0.95701140389502
  H   1.19400544657788      5.99510209149127     -0.55876281724080
  H   0.74438649824624      7.41182028916780     -0.93479716488198
