58
Coordinates from ORCA-job inp
  O   -0.51199513141865     -2.93048203223176      0.08685652533352
  C   -0.20999487034507     -3.61814789500241      1.03513685042288
  O   -0.52299502911458     -4.92430077857306      1.13691902110199
  H   -1.01499497005594     -5.14693627044214      0.33228350880214
  C   0.57500480128994     -3.15874081549173      2.24904910373172
  H   1.51000468259154     -3.71546738633757      2.28346457813950
  H   -0.00099447642509     -3.41404598510247      3.13582859135027
  N   0.82800317905072     -1.74737716517149      2.22088684608946
  H   1.51200502819175     -1.40049159135090      1.55444462697067
  C   -0.23399008041705     -0.91475235692618      2.44633168098264
  O   -1.26899513221939     -1.27212536571364      2.98934832507458
  C   -0.03499210638648      0.47831058107177      1.86677255706378
  H   0.96500473874161      0.85651697449868      2.07189999268643
  H   -0.78300182600314      1.14574000060722      2.28029305913680
  N   -0.20800000879340      0.38432358399775      0.43136693236064
  H   -1.12699210202889      0.43247657659085      0.01225407455060
  C   0.77200717187465     -0.06812192447244     -0.36754115167321
  O   1.92800442522407     -0.28532723940111      0.01338017025182
  C   0.36900441112336     -0.26048001484047     -1.81844842059141
  N   -1.07499505159712     -0.45293079436821     -1.91429597917448
  H   -1.30599496016337     -1.36823710918789     -1.53988102448496
  H   -1.35799495251786     -0.44998794360274     -2.88699159126032
  H   0.95100454730467     -1.11789223943356     -2.16905669886088
  C   0.81400517754456      0.97345765449423     -2.62581990567332
  H   1.90400465708849      0.97611081136942     -2.64505451910025
  H   0.46600478406571      0.84885728756078     -3.65421664854448
  C   0.31100484309593      2.26457767278833     -2.04870748228886
  C   -0.95799500122467      2.75736568194764     -2.35984867328784
  H   -1.57599492675521      2.22719071533753     -3.07276896146015
  C   -1.43899494280216      3.91927756993858     -1.75927779179242
  H   -2.42399483066400      4.28827970600792     -2.01163939672291
  C   -0.65099503465179      4.60630750334838     -0.83641346837017
  H   -1.02299499133212      5.50862143098553     -0.37183479521365
  C   0.62000482451798      4.12827818806414     -0.52484821599078
  H   1.24100475084095      4.66068220250740      0.18359641315236
  C   1.09600477170991      2.96725651362888     -1.12810379330669
  H   2.08000465753001      2.58975522546832     -0.87707047082492
  O   3.05024124492890     -2.64937009277401     -1.06206635329693
  H   3.77032166960020     -2.46292999602307     -1.67679054607745
  H   2.74974296771072     -1.76798355227887     -0.76088128761858
  O   -3.28570005861167      0.93897142056394      0.51255649060860
  H   -3.29510545272915      1.06334235862470      1.47929305105890
  H   -3.41538507691545     -0.02236110159174      0.43130116290837
  O   -1.94007288341412     -5.67211687685576     -1.06830366269284
  H   -2.40544179107465     -4.91570004582012     -1.44927107714555
  H   -1.34878704764990     -5.96470448814257     -1.77441121516566
  O   0.36066184282579     -2.35368901004214     -4.77864897942300
  H   0.99162461945707     -1.62542510040691     -4.76125340584679
  H   0.54459433242946     -2.84462425265922     -3.95257186144104
  O   -3.37265225871457     -1.96998346627632      0.88407149801210
  H   -2.82948521162979     -2.44271822926608      0.23967202678614
  H   -2.77144584354144     -1.84708916960750      1.63527219167344
  O   -3.21992807120270      0.79332303808427      3.42936591069892
  H   -4.05694124980277      0.40120988222638      3.70611658720634
  H   -2.59963907921978      0.04042926028081      3.39334735599119
  O   0.85024893850325     -3.85094651529874     -2.40697265921644
  H   1.63064950808475     -3.45999490755074     -1.95949286877929
  H   0.12894529859083     -3.67490611277600     -1.78478828780742
