58
Coordinates from ORCA-job inp
  O   -2.32692719403441     -2.68505202445814      1.48265545379057
  C   -1.12892731847405     -2.71989669802999      1.33338093284562
  O   -0.27392737996178     -2.37197736981322      2.30467076535918
  H   0.64207250873820     -2.37479016930750      1.93214813687715
  C   -0.46892737138510     -3.16979561613221      0.03277534992324
  H   -1.25092705804880     -3.51553456405553     -0.63396791978028
  H   0.21707254851280     -3.99207975808424      0.24746242880858
  N   0.26107258268426     -2.10232073871220     -0.62890797477594
  H   -0.07192747745154     -1.70670727324745     -1.50430172830196
  C   1.43707218460468     -1.65248796066580     -0.16459349590212
  O   1.94707252943688     -2.04581270228313      0.89325705820218
  C   2.12807275400595     -0.62409317151559     -1.05067192447158
  H   2.31507229757186     -1.06639607703489     -2.02930362908767
  H   3.07307189036279     -0.37548653501120     -0.57909482261039
  N   1.36407245275018      0.59358702622799     -1.24497956077542
  H   1.49307251801999      1.35519269867886     -0.59503383251851
  C   0.31107082229935      0.65342280678082     -2.09127369744147
  O   -0.05892528728808     -0.32109401443710     -2.75494825801600
  C   -0.41992741062799      1.99036593526479     -2.17544963507141
  N   -1.12292399015998      2.16981602518612     -3.43351486400829
  H   -1.65493088837662      1.32409093449366     -3.61230704711027
  H   -0.44992751133374      2.21559075716843     -4.18987880446737
  H   0.30507247887687      2.79923316000758     -2.06542238818606
  C   -1.42692749625062      2.08792023191433     -1.01430010133742
  H   -1.96792715748960      3.02445399000898     -1.15327529637237
  H   -2.14692690621847      1.27149372555534     -1.10820646586266
  C   -0.75192735627012      2.03927988529655      0.32569069401144
  C   0.09407251119471      3.08460151325757      0.71636631874643
  H   0.18307258467747      3.96209501830385      0.08651088557360
  C   0.81507259832810      3.01363831919890      1.90749546464650
  H   1.46307237349174      3.83104274212996      2.19459662724414
  C   0.69007251689260      1.89517915113282      2.73031592662077
  H   1.24707245053822      1.83690085419710      3.65531725236257
  C   -0.16792741800150      0.85842584306712      2.36555527269867
  H   -0.28292737284853     -0.01011732680430      2.99762209951001
  C   -0.87892729089547      0.93160650807319      1.16771165166650
  H   -1.54292724768067      0.12093498490926      0.88953641553504
  O   -3.46065863384439     -1.33181416294126     -1.81678178180778
  H   -3.07582239786299     -1.38180184043138     -2.71727506526999
  H   -2.70914050471420     -1.10012581924520     -1.25626904850258
  O   -2.17923974185723     -1.29964536141033     -4.34059792565131
  H   -1.37580229870903     -0.92671272084601     -3.93282500085403
  H   -1.91897687377006     -2.18720169772659     -4.61619796899647
  O   3.67647212573518     -0.20435374372416      2.28555296860909
  H   3.20817622938922      0.03242011608592      3.09561988899133
  H   3.09651079676951     -0.86289348877792      1.86004022835083
  O   -4.11644882313827     -3.87457725018854     -0.66734460063288
  H   -3.95681977592380     -3.03986821235550     -1.14727835574425
  H   -3.63104685105737     -3.72839329229110      0.15592119075632
  O   -3.13046174278740     -1.05855565247409      3.74618634406910
  H   -3.90124603898160     -1.46460573326445      4.16132602987089
  H   -2.92030186970310     -1.64928403860912      2.99997785657154
  O   3.64831849011871      1.97610557370923      0.43058920171169
  H   3.65123253336545      1.29179047969371      1.12888704946885
  H   3.23704220919656      2.73852722929144      0.85359361138946
  O   -0.79945404546634     -1.28390243581908      5.39570739614040
  H   -1.60745578010299     -1.21919588371713      4.85027432482418
  H   -0.22910330559448     -1.86272823019622      4.87716653607869
