137
Coordinates from ORCA-job inp
  O   -1.48106458356261      3.34240803323942     -3.55653855801347
  O   2.64762615667109     -3.05579275383565     -4.74427887590385
  N   -0.48326448848164      3.91361796616362      1.45342226087555
  N   -2.94086493297135      3.24962788499274     -0.59163811609821
  N   -0.69899446574338      1.64734766336906     -2.23981832790323
  N   1.99664600713736     -0.00171268201066     -1.51828827915790
  N   1.35094614678662     -2.88334345535705     -2.85107839765745
  C   -0.53921446640179      5.16742826132902      0.69267214801841
  C   -1.11787457564105      5.08027823595060     -0.72615812697787
  C   -2.60646483186682      4.67094816092900     -0.74047811730498
  C   -2.40988480226858      2.48468775856528      0.54978211421260
  C   -1.79049469609322      3.28868790999095      1.70004233010001
  C   -2.97499486757928      2.48890785608381     -1.84206825365636
  C   -1.65976477997827      2.51203754495573     -2.64054867083178
  C   0.59723581074910      1.55826766463433     -2.91112856065942
  C   1.18550580945634      0.15614728748671     -2.74619850827107
  C   1.95186602131937     -1.37159308032596     -0.97325813862646
  C   2.37814586532640     -2.54301248243339     -1.87951846901101
  C   1.54062566334101     -3.05425385571882     -4.17236887950366
  C   3.38057625149198      0.47358738073689     -1.77573831458642
  C   4.18324642788058      0.67540742371821     -0.51342808999071
  C   5.06868657227313     -0.31017276490619     -0.04956799746618
  C   5.78662670908880     -0.12410272901711      1.13843222659853
  C   5.62369667727017      1.05398748776296      1.87619236276876
  C   4.75016651334403      2.04827767372502      1.41638228963770
  C   4.04085637243685      1.85818763748176      0.22823205560196
  C   0.53741578715091      2.99086800426467      0.98356224046087
  H   -0.94593454402149      0.88476747770542     -1.59174827988626
  H   0.35493565770656     -2.85856315521592     -2.59319848135705
  H   0.48341572555030      5.57572832956763      0.65606213393103
  H   -1.14739457798136      5.87958838611602      1.27846225260678
  H   -0.52252446126589      4.38991811092752     -1.34202823598544
  H   -1.02740455623843      6.07465841950972     -1.19597820521475
  H   -3.12656494714361      5.23913826572746      0.05155202558042
  H   -3.05865493218887      4.98886821786679     -1.69125830067815
  H   -1.64613467329272      1.76080762452591      0.21564205416947
  H   -3.22636496396580      1.87199764354167      0.97286219265557
  H   -2.47955482853144      4.07398805134709      2.04566239547827
  H   -1.66885467861672      2.58562777554184      2.54060248411021
  H   -3.74622507624949      2.90722780469938     -2.50574846541936
  H   -3.26314497074583      1.45393754186473     -1.60390829426973
  H   1.28589586946032      2.32276770224290     -2.51140842824848
  H   0.44951568098418      1.78917757410754     -3.97620871356995
  H   0.35483570765640     -0.55884280848158     -2.70518849173865
  H   1.77852596187100     -0.10332272305421     -3.64339866313556
  H   0.92229579650850     -1.53923297555037     -0.61690810593215
  H   2.60845610982365     -1.39189294833270     -0.09316800301122
  H   3.30155638770183     -2.31954360244035     -2.43203835647591
  H   2.58639613533416     -3.41377340531055     -1.23621819493144
  H   3.29678624758314      1.43486756166485     -2.30215841434094
  H   3.91591635802057     -0.21407274458493     -2.46162844261458
  H   5.19790659804777     -1.23047293374957     -0.62431810029140
  H   6.46850683317493     -0.90075287069568      1.48909229196331
  H   6.17740677890213      1.19942751449737      2.80528253529410
  H   4.62206656244310      2.97043786353497      1.98570226131859
  H   3.36264625639270      2.63373778380167     -0.13405801265386
  H   0.29915573283535      2.47822773080280      0.02804201061918
  H   1.45454589318588      3.57414795600953      0.79576214932290
  C   0.23179565161018     -3.21365292172321     -4.96796857074361
  C   0.92211517137360      1.95448689579668      2.04632249172916
  N   -0.95268453317805     -3.28871338475164     -4.12453881552864
  H   0.17340573004758     -2.32921328684202     -5.61992921555179
  H   0.35340571199401     -4.08912350379397     -5.63451908127451
  O   0.88251640129439      2.21448853012586      3.26029249232598
  N   1.36107571659006      0.76587743074115      1.55369253863446
  C   -1.29658460877316     -4.65236356319672     -3.70958867774379
  C   -2.10057477053279     -2.44459315417472     -4.48546879769650
  C   2.11620719790334     -0.16414174420262      2.38771145138051
  H   1.42313595274427      0.66112743187751      0.52926208367538
  C   -2.43903480864803     -4.67111357663362     -2.68186846709838
  H   -1.56864466064854     -5.28630368210471     -4.58049883773346
  H   -0.39162444057802     -5.09504365057566     -3.26376859022204
  C   -2.54232481595622     -1.57438299081438     -3.30857859958335
  H   -1.80203470185094     -1.76358303996002     -5.29528898425311
  H   -2.94223491438901     -3.04731327288216     -4.87316889191901
  C   1.51810591533296     -1.56701321955664      2.63980288135764
  H   3.10358604418495     -0.31336283747289      1.92315242204480
  H   2.28614514087752      0.33924646833585      3.34748327654296
  C   -2.43790482741477     -3.49554335677667     -1.69370830468147
  H   -3.41589499884586     -4.67883357354467     -3.18817857861275
  H   -2.37174480443075     -5.61438374564818     -2.11934837973039
  N   -3.16829496251124     -2.31609311758065     -2.19847840285641
  H   -3.28519497576771     -0.84012286325113     -3.66324866652578
  H   -1.65465467425505     -1.01083289585826     -2.97084853700640
  N   0.25572560129297     -1.70576295273221      3.35965236309022
  H   2.30240604026244     -2.09693306362522      3.21390260764105
  H   1.41160589347675     -2.10523307492803      1.68867229950031
  H   -1.40105462473366     -3.24380330558412     -1.38666824423309
  H   -2.96443491409395     -3.80972341498846     -0.77954813336321
  C   -3.58176497739163     -1.43578306987928     -1.10614819488603
  C   -0.95717427099544     -1.86334302648049      2.57205298657458
  C   0.13854565328133     -0.89639290784087      4.57541289470361
  C   -2.43836495422319     -0.95759255140076     -0.19407809942152
  H   -4.06950513608672     -0.54565279212054     -1.53479825082256
  H   -4.34167517388010     -1.95166306330783     -0.49722807641343
  C   -1.67427518240313     -0.57493257583803      2.10494195335347
  H   -0.70157452095028     -2.44828317927391      1.67612225321764
  H   -1.68037481888274     -2.46273315790867      3.15073240562254
  C   -0.99108453880532     -1.36713306715687      5.46687306759662
  H   1.09382583722560     -0.99217287842081      5.12012296215826
  H   0.01451564008271      0.18364732823414      4.35798282184512
  O   -1.31547458021261     -0.63627291920213     -0.64799809038297
  N   -2.70502449994917     -0.90735351239255      1.12753249397539
  H   -0.95316447279529      0.09385728514414      1.62443236932500
  H   -2.14290451345864     -0.05067276301073      2.94864271842123
  C   -1.03707455657168     -2.69865317726276      5.91189308392474
  C   -2.01395484131727     -0.49045258003691      5.85206313236702
  H   -3.60579522042181     -1.24379260387609      1.45996210102703
  C   -2.08208473032142     -3.14222328987118      6.72626326619713
  H   -0.25006441610409     -3.38814333412676      5.59814305694533
  C   -3.06285482717260     -0.92878294047892      6.67085326050312
  H   -1.99018472975297      0.54620729309259      5.50632304977983
  C   -3.09943501359113     -2.25637312073625      7.10957332679300
  H   -2.10539475612274     -4.17969347948445      7.06618333154604
  H   -3.85322510130432     -0.23367271570946      6.96093331949546
  H   -3.91730508015142     -2.60206319049773      7.74468344773311
  O   -4.35555353895436     -1.86373287641039      3.54607440481563
  H   -3.80642629332453     -1.59318434337062      4.29548685025283
  H   -5.24948926845742     -1.62889328209933      3.82304887199907
  O   0.80525112030127      4.90969679361331     -4.17904757351669
  H   0.44154782848631      5.51468862674109     -4.83535212844557
  H   0.05962310816855      4.31569775828200     -3.97172077581023
  O   5.20341926422305     -1.84795470550052     -4.25938931403049
  H   5.74358822491392     -2.16045145166342     -4.99415279724546
  H   4.34754320379843     -2.29543643166704     -4.38831789875602
  O   2.74714715033621     -1.05260212403049     -6.81140399572438
  H   2.70607790962136     -1.78218459294062     -6.16736655400816
  H   3.19851409032963     -0.35135424097486     -6.32762659494817
  O   2.06141126175358      1.81777916718188      5.84515373355798
  H   1.68717382816172      1.89539089445803      4.95101570762434
  H   2.28304438438433      2.72577323115212      6.08099671879842
  O   -0.13919537211511      4.52941773972354      4.56842782872261
  H   0.15119820411972      3.82325484265533      3.95918252965706
  H   -0.59368087224621      5.14148471643456      3.97844199208541
  O   -3.02494187275133      5.53455637194767     -4.40888217866400
  H   -2.54100004726331      4.76255408212969     -4.05522006312928
  H   -2.62634920590862      6.28534949261326     -3.95457332446428
