59
Coordinates from ORCA-job inp
  O   3.29988766829868     -1.40604662294301     -0.99572898514935
  C   2.41386805928073     -1.34232071968470     -1.82451404941513
  O   1.91574818479513     -2.42777999344614     -2.40624763456812
  H   1.21425802777728     -2.14995283569704     -3.05315149780268
  C   1.81733744886196     -0.01481531202814     -2.28413252450279
  H   2.07517795995173      0.12088408646968     -3.33758644407556
  H   2.27587809619727      0.77657867073227     -1.70158669960630
  N   0.37775819675775      0.08051585505045     -2.12816519777676
  H   -0.02879179134137      0.73011512490711     -1.45489709476531
  C   -0.46877174988117     -0.59722211519627     -2.91403843073162
  O   -0.09622177094353     -1.42665266684445     -3.75871963952719
  C   -1.94329171449897     -0.28009321846074     -2.71448675388836
  H   -2.50093145225668     -0.91771905055845     -3.39224954004832
  H   -2.11458152222642      0.76638018942536     -2.97486037025290
  N   -2.39935125864334     -0.50945646666286     -1.35859387864198
  H   -3.06751152407013     -1.23694136598757     -1.14824925135109
  C   -2.18536187680664      0.39438307923702     -0.37914967518415
  O   -1.49326151746821      1.40309260727218     -0.53579185122982
  C   -2.79610134341096      0.03211358839886      0.96041779089371
  H   -2.88866149736859      0.97341249858233      1.50676685314598
  N   -4.05486136606689     -0.68978260150278      0.76968539202013
  H   -4.31177131015876     -1.15601231354096      1.63184677125002
  H   -4.80728125415468     -0.04548696810533      0.55587219615537
  C   -1.82302161626472     -0.89680471391919      1.71303610703357
  H   -1.89155159217788     -1.88414233811174      1.25011623006985
  H   -2.18877153961460     -0.99208883607306      2.74011783050030
  C   -0.41079182128201     -0.43137626840392      1.68852311746906
  C   0.61924939112910     -1.02141582936658      0.98387212136527
  H   0.61859700036850     -1.92610878021187      0.39608129124653
  N   1.76723651011745     -0.28521187702786      1.13032812219307
  H   2.64009920256123     -0.51987579328247      0.67578844194850
  C   1.50848849022831      0.79805753368475      1.92919335887839
  C   2.35148778272105      1.82582230712503      2.35998890808048
  H   3.39419783307676      1.85728230943725      2.07214707778862
  C   1.80178799935777      2.80192569186568      3.17701789904626
  H   2.42584792876722      3.61175856668821      3.52948032853714
  C   0.44594811624991      2.75825877155581      3.55960252755503
  H   0.05473819261632      3.53771821924784      4.19924143854565
  C   -0.38945169561469      1.73967091241244      3.13115208661405
  H   -1.42849163872790      1.71934055248364      3.43532147645220
  C   0.13716805552832      0.73530785901828      2.30239598706448
  O   2.99247447940648     -3.73375105825955      1.03240770287050
  H   3.31882859083268     -3.06512633312653      0.41520745453748
  H   2.18664777100979     -4.06249015800212      0.59094297908082
  O   5.09866879212744      0.97990185863069     -0.50204805029687
  H   4.56538458631779      0.18999460663141     -0.67404690313375
  H   5.27339535870219      0.93540990557529      0.44515198583780
  O   0.84502781800184     -4.73732950639901     -0.58348941638189
  H   1.21176397666927     -4.32627097350530     -1.37746983561953
  H   -0.07859623647306     -4.40844318724434     -0.56185547919390
  O   -1.75049557567134     -3.80118339296396     -3.57652500542334
  H   -1.23423174178215     -3.01169992196575     -3.81747287843066
  H   -2.59803653161437     -3.67894386784354     -4.02184025568355
  O   0.27091821321786      3.54926710554670      0.17580725402685
  H   -0.34398643303133      2.79897743787757      0.14063777978711
  H   0.76141020647053      3.40568576968816      0.99625626964312
  O   -1.81369408713535     -3.79174616144530     -0.76167218868938
  H   -2.44822857633647     -4.45075076706296     -0.45468223057944
  H   -1.89705316449002     -3.80103901716142     -1.73942905040928
