116
Coordinates from ORCA-job inp
  N   -1.77962014260000     -3.58434626720000     -0.74847249110000
  N   -1.48735117570000     -3.06053153940000      0.53810775600000
  N   -1.48871647560000     -0.66141594790000     -0.79802629620000
  N   -2.71367363670000      2.52407594410000     -0.28940526600000
  C   -1.47067097760000     -5.44537940950000      1.43923910100000
  C   -2.70948733720000     -5.45976415390000      0.53368115990000
  C   -2.35150977780000     -4.95083877590000     -0.85907833440000
  C   -0.77822425610000     -4.05103504280000      1.39818694620000
  C   -1.37927658800000     -2.93588961050000     -1.87638139120000
  C   -0.82417305090000     -1.49889064130000     -1.78830913090000
  C   0.70576397560000     -1.50655186680000     -1.61523197380000
  C   1.39461919750000     -0.15531885870000     -1.73401885090000
  C   0.73577167220000      1.00185563580000     -2.16991368230000
  C   1.37693239950000      2.24918930640000     -2.14099719210000
  C   2.70917344840000      2.34960192110000     -1.72211773420000
  C   3.38516057180000      1.18747708150000     -1.33696851220000
  C   2.74148714480000     -0.05145455170000     -1.34559927910000
  C   -2.33740477940000      0.33708633370000     -1.12513842240000
  C   -2.93392201170000      1.12188037080000      0.05002903110000
  C   -4.41637034360000      0.74247689070000      0.32069154650000
  C   -5.35473343720000      1.12006114400000     -0.82889037480000
  C   -4.51677843230000     -0.74768072350000      0.67684487420000
  C   -2.59754324990000      3.51531734410000      0.62720444460000
  C   -1.87438313190000      4.77344576670000      0.14541822550000
  C   -2.07475320910000      5.07339436990000     -1.34647919310000
  C   -0.34323340550000      4.64621601600000      0.56140939140000
  C   0.13144024070000      3.23771278980000      0.91845666740000
  C   1.53406148170000      3.23253860590000      1.53810108140000
  C   0.64993288190000     -4.14724453500000      0.87310431310000
  C   2.91539572510000     -3.45024382620000      1.20592729510000
  C   3.63375574360000     -2.28868295920000      1.83111815680000
  C   3.09997440410000     -1.00042970420000      1.73209938590000
  C   3.82058922240000      0.12868195280000      2.16450047080000
  C   5.10435287690000     -0.07531899550000      2.71406748810000
  C   5.63049181720000     -1.36203855170000      2.84631065980000
  C   4.90043130000000     -2.47226198780000      2.40632963330000
  C   3.30750528060000      1.49131596270000      1.97891533590000
  C   2.01743612690000      1.83841927900000      1.82908460850000
  C   0.85360795880000      6.52008458380000     -0.41855859860000
  O   -1.48701357580000     -3.47906696820000     -2.98799331710000
  O   0.64367268260000      3.35224316600000     -2.53053789330000
  O   -2.60369774920000      0.65522056550000     -2.29828992190000
  O   -2.95344130950000      3.37302005660000      1.81213617750000
  O   0.96917354570000     -4.77361412690000     -0.12552427860000
  O   0.53334039510000      5.12179655210000     -0.48752884330000
  O   1.50937468450000     -3.43053402110000      1.63097780690000
  H   -2.37877397470000     -2.83905955710000      0.99602467770000
  H   -1.32751119390000     -0.90401498820000      0.17784245540000
  H   -2.46765686460000      2.70973137570000     -1.26027499130000
  H   -0.76830575730000     -6.21561726200000      1.09064079800000
  H   -1.74258544680000     -5.68750483080000      2.47459014720000
  H   -3.51869194540000     -4.84946673660000      0.96558136700000
  H   -3.10266649260000     -6.48120346840000      0.44502016350000
  H   -1.59702436330000     -5.60294388030000     -1.32655286460000
  H   -3.22620147860000     -4.90929606230000     -1.52271183290000
  H   -0.75834275840000     -3.58630351400000      2.39071884700000
  H   -1.07238982280000     -1.06888711270000     -2.76730291210000
  H   1.12128112850000     -2.20861123510000     -2.35572592500000
  H   0.94531254840000     -1.93269652320000     -0.62722498180000
  H   -0.30075371030000      0.98661395240000     -2.50363299080000
  H   3.19787229300000      3.32478270850000     -1.68857127230000
  H   4.42121825430000      1.25371255440000     -1.00169064880000
  H   3.28038178370000     -0.94005336200000     -1.01316691920000
  H   -2.36691057600000      0.91206869090000      0.97191828850000
  H   -4.69523741200000      1.33394332520000      1.20797194470000
  H   -5.12820286290000      0.54029596550000     -1.73502563530000
  H   -5.26649804720000      2.18732448070000     -1.07802410080000
  H   -6.39761731900000      0.92031269660000     -0.54281791470000
  H   -3.83190170990000     -1.00961729390000      1.49888128440000
  H   -4.27597335960000     -1.38115840930000     -0.19201165380000
  H   -5.53635121660000     -1.00036987430000      0.99888096920000
  H   -2.30347548320000      5.59943459800000      0.72907047140000
  H   -1.64397775800000      6.04698895760000     -1.60891150240000
  H   -1.58618326450000      4.33029001890000     -1.99252997980000
  H   -3.14697798760000      5.10689869240000     -1.58529566410000
  H   -0.18827282300000      5.29111716420000      1.44218495290000
  H   0.10760654340000      2.59836738610000      0.02281632450000
  H   -0.56805088000000      2.79631533760000      1.64259954290000
  H   1.50474988500000      3.82499590080000      2.47123357740000
  H   2.24403580120000      3.74125558670000      0.86780870450000
  H   2.94326072190000     -3.38497339280000      0.10742191820000
  H   3.35120497560000     -4.41408421830000      1.50232783020000
  H   2.12650221450000     -0.86443008380000      1.25998545300000
  H   5.68937271050000      0.78773371470000      3.04024587580000
  H   6.61984490500000     -1.50222577140000      3.28544278370000
  H   5.32252815210000     -3.47600092410000      2.48857277130000
  H   4.06965879420000      2.27856939940000      1.93750863480000
  H   1.24367731460000      1.06450734360000      1.90246644660000
  H   -0.05187303850000      7.14709994660000     -0.46258498670000
  H   1.40488329630000      6.74300833540000      0.50973937410000
  H   1.48853978680000      6.74086209270000     -1.28462312900000
  H   0.75399447010000      4.08249473770000     -1.85792424870000
  O   -0.93286437310000      2.81611692030000     -4.95954920850000
  H   -0.29899809900000      3.01029414720000     -4.25910750190000
  H   -0.92292691470000      1.85093664280000     -5.06298636120000
  O   -3.22489508750000      3.12250783400000     -3.43860081140000
  H   -3.28044279820000      2.18921498150000     -3.20315132640000
  H   -2.51029094390000      3.16552630550000     -4.10160971390000
  O   -1.19795627100000      0.04059658530000     -4.78978219480000
  H   -1.99406206710000      0.15227281350000     -4.25806634050000
  H   -1.27154617820000     -0.82322714860000     -5.23276926360000
  O   -2.21058721490000      1.41313773910000      3.50224222660000
  H   -2.67548128920000      1.54109961880000      4.32997188100000
  H   -2.52670337860000      2.12318418430000      2.90714515120000
  O   -4.08405600240000      5.89747345570000      2.39206735710000
  H   -4.94859056330000      5.83109794900000      1.98302750830000
  H   -3.70239726210000      5.00621430420000      2.36892310370000
  O   -1.25923197020000     -2.59433340660000     -5.59161262100000
  H   -0.40530358340000     -2.92050621660000     -5.88012188650000
  H   -1.40235355090000     -2.96498847060000     -4.70275977560000
  O   2.96524993590000     -4.08754391740000     -1.99843638340000
  H   3.39113099900000     -4.76912143560000     -2.52010615810000
  H   2.20805968630000     -4.50239734410000     -1.56249711030000
  O   -1.12909727110000     -0.76398684780000      2.22305850820000
  H   -0.24552216370000     -0.89990125020000      2.57149442110000
  H   -1.51219180750000     -0.03174872120000      2.74133527180000
